* XREF SPICE	Wed Apr 27 00:33:05 2022	if_neuron_shortRun
* icv_netlist Version RHEL64 O-2018.06-SP1.4289877 2018/07/23

* Top of hierarchy  cell=if_neuron_shortRun
.subckt if_neuron_shortRun CLK W3 W2 gnd! W1 W0 vdd! F X3<3> X3<2> X3<1>
+	X3<0> X2<3> X2<2> X2<1> X2<0> X1<3> X1<2> X1<1> X1<0> X0<3> X0<2>
+	X0<1> X0<0>
M_ld_M1 XI44/XI1/net017 XI44/net033 XI44/XI1/net059 gnd! n105  l=3e-08 w=4.89e-07 nf=1 m=1 ad=2.9829e-14 as=4.9878e-14
+	 ps=1.182e-06 pd=6.11e-07 SCC=0.0106338 SCA=161.491 SCB=0.0377221 nrd=0.124744
+	 nrs=0.208589
M_ld_M2 XI44/XI1/net017 XI44/net033 XI44/XI1/net059 gnd! n105  l=3e-08 w=4.89e-07 nf=1 m=1 ad=2.9829e-14 as=4.9389e-14
+	 ps=1.18e-06 pd=6.11e-07 SCC=0.0106339 SCA=161.714 SCB=0.0378462 nrd=0.124744
+	 nrs=0.206544
M_ld_M3 net086 XI44/XI1/net017 gnd! gnd! n105  l=3e-08 w=3.38e-07 nf=1 m=1 ad=2.0618e-14 as=3.4476e-14
+	 ps=8.8e-07 pd=4.6e-07 SCC=0.00764133 SCA=58.2584 SCB=0.0397019 nrd=0.180473
+	 nrs=0.301775
M_ld_M4 net086 XI44/XI1/net017 gnd! gnd! n105  l=3e-08 w=3.38e-07 nf=1 m=1 ad=2.0618e-14 as=2.0618e-14
+	 ps=4.6e-07 pd=4.6e-07 SCC=0.00764361 SCA=58.7351 SCB=0.0402749 nrd=0.180473
+	 nrs=0.180473
M_ld_M5 net086 XI44/XI1/net017 gnd! gnd! n105  l=3e-08 w=3.38e-07 nf=1 m=1 ad=3.4476e-14 as=2.0618e-14
+	 ps=4.6e-07 pd=8.8e-07 SCC=0.00765049 SCA=59.3805 SCB=0.041207 nrd=0.301775
+	 nrs=0.180473
M_ld_M6 XI44/XI0/net017 gnd! XI44/XI0/net059 gnd! n105  l=3e-08 w=4.89e-07 nf=1 m=1 ad=2.9829e-14 as=4.9878e-14
+	 ps=1.182e-06 pd=6.11e-07 SCC=0.0106338 SCA=161.491 SCB=0.0377221 nrd=0.124744
+	 nrs=0.208589
M_ld_M7 XI44/XI0/net017 gnd! XI44/XI0/net059 gnd! n105  l=3e-08 w=4.89e-07 nf=1 m=1 ad=2.9829e-14 as=4.9389e-14
+	 ps=1.18e-06 pd=6.11e-07 SCC=0.0106339 SCA=161.714 SCB=0.0378462 nrd=0.124744
+	 nrs=0.206544
M_ld_M8 net085 XI44/XI0/net017 gnd! gnd! n105  l=3e-08 w=3.38e-07 nf=1 m=1 ad=2.0618e-14 as=3.4476e-14
+	 ps=8.8e-07 pd=4.6e-07 SCC=0.00764133 SCA=58.2584 SCB=0.0397019 nrd=0.180473
+	 nrs=0.301775
M_ld_M9 net085 XI44/XI0/net017 gnd! gnd! n105  l=3e-08 w=3.38e-07 nf=1 m=1 ad=2.0618e-14 as=2.0618e-14
+	 ps=4.6e-07 pd=4.6e-07 SCC=0.00764361 SCA=58.7351 SCB=0.0402749 nrd=0.180473
+	 nrs=0.180473
M_ld_M10 net085 XI44/XI0/net017 gnd! gnd! n105  l=3e-08 w=3.38e-07 nf=1 m=1 ad=3.4476e-14 as=2.0618e-14
+	 ps=4.6e-07 pd=8.8e-07 SCC=0.00765049 SCA=59.3805 SCB=0.041207 nrd=0.301775
+	 nrs=0.180473
M_ld_M11 XI44/XI2/net017 XI44/net030 XI44/XI2/net059 gnd! n105  l=3e-08 w=4.89e-07 nf=1 m=1 ad=2.9829e-14 as=4.9878e-14
+	 ps=1.182e-06 pd=6.11e-07 SCC=0.0106345 SCA=161.501 SCB=0.0377395 nrd=0.124744
+	 nrs=0.208589
M_ld_M12 XI44/XI2/net017 XI44/net030 XI44/XI2/net059 gnd! n105  l=3e-08 w=4.89e-07 nf=1 m=1 ad=2.9829e-14 as=4.9389e-14
+	 ps=1.18e-06 pd=6.11e-07 SCC=0.0106346 SCA=161.724 SCB=0.0378637 nrd=0.124744
+	 nrs=0.206544
M_ld_M13 net087 XI44/XI2/net017 gnd! gnd! n105  l=3e-08 w=3.38e-07 nf=1 m=1 ad=2.0618e-14 as=3.4476e-14
+	 ps=8.8e-07 pd=4.6e-07 SCC=0.00764227 SCA=58.2704 SCB=0.0397227 nrd=0.180473
+	 nrs=0.301775
M_ld_M14 net087 XI44/XI2/net017 gnd! gnd! n105  l=3e-08 w=3.38e-07 nf=1 m=1 ad=2.0618e-14 as=2.0618e-14
+	 ps=4.6e-07 pd=4.6e-07 SCC=0.00764455 SCA=58.7472 SCB=0.0402957 nrd=0.180473
+	 nrs=0.180473
M_ld_M15 net087 XI44/XI2/net017 gnd! gnd! n105  l=3e-08 w=3.38e-07 nf=1 m=1 ad=3.4476e-14 as=2.0618e-14
+	 ps=4.6e-07 pd=8.8e-07 SCC=0.00765143 SCA=59.3926 SCB=0.0412278 nrd=0.301775
+	 nrs=0.180473
M_ld_M16 XI44/XI3/net017 XI44/net35 XI44/XI3/net059 gnd! n105  l=3e-08 w=4.89e-07 nf=1 m=1 ad=2.9829e-14 as=4.9878e-14
+	 ps=1.182e-06 pd=6.11e-07 SCC=0.0106345 SCA=161.501 SCB=0.0377395 nrd=0.124744
+	 nrs=0.208589
M_ld_M17 XI44/XI3/net017 XI44/net35 XI44/XI3/net059 gnd! n105  l=3e-08 w=4.89e-07 nf=1 m=1 ad=2.9829e-14 as=4.9389e-14
+	 ps=1.18e-06 pd=6.11e-07 SCC=0.0106346 SCA=161.724 SCB=0.0378637 nrd=0.124744
+	 nrs=0.206544
M_ld_M18 net088 XI44/XI3/net017 gnd! gnd! n105  l=3e-08 w=3.38e-07 nf=1 m=1 ad=2.0618e-14 as=3.4476e-14
+	 ps=8.8e-07 pd=4.6e-07 SCC=0.00764227 SCA=58.2704 SCB=0.0397227 nrd=0.180473
+	 nrs=0.301775
M_ld_M19 net088 XI44/XI3/net017 gnd! gnd! n105  l=3e-08 w=3.38e-07 nf=1 m=1 ad=2.0618e-14 as=2.0618e-14
+	 ps=4.6e-07 pd=4.6e-07 SCC=0.00764455 SCA=58.7472 SCB=0.0402957 nrd=0.180473
+	 nrs=0.180473
M_ld_M20 net088 XI44/XI3/net017 gnd! gnd! n105  l=3e-08 w=3.38e-07 nf=1 m=1 ad=3.4476e-14 as=2.0618e-14
+	 ps=4.6e-07 pd=8.8e-07 SCC=0.00765143 SCA=59.3926 SCB=0.0412278 nrd=0.301775
+	 nrs=0.180473
M_XI46/MM15 XI46/net05 CLK gnd! gnd! n105  l=3e-08 w=4.2e-07 nf=1 m=1 ad=4.284e-14 as=4.284e-14
+	 ps=1.044e-06 pd=1.044e-06 SCC=0.00933237 SCA=82.2242 SCB=0.0332183 nrd=0.242857
+	 nrs=0.242857
M_ld_M22 XI44/XI1/net017 XI44/XI1/net15 XI44/XI1/net033 gnd! n105  l=3e-08 w=3.27e-07 nf=1 m=1 ad=3.3354e-14 as=1.9947e-14
+	 ps=4.49e-07 pd=8.58e-07 SCC=0.00740192 SCA=53.7084 SCB=0.0387844 nrd=0.311927
+	 nrs=0.186544
M_ld_M23 XI44/XI1/net059 net068 XI44/XI1/net058 gnd! n105  l=3e-08 w=4.89e-07 nf=1 m=1 ad=2.9829e-14 as=2.9829e-14
+	 ps=6.11e-07 pd=6.11e-07 SCC=0.0106338 SCA=160.1 SCB=0.0375459 nrd=0.124744
+	 nrs=0.124744
M_ld_M24 XI44/XI1/net059 net068 XI44/XI1/net058 gnd! n105  l=3e-08 w=4.89e-07 nf=1 m=1 ad=4.8411e-14 as=2.9829e-14
+	 ps=6.11e-07 pd=1.176e-06 SCC=0.0106338 SCA=161.164 SCB=0.0376056 nrd=0.202454
+	 nrs=0.124744
M_ld_M25 XI44/XI1/net058 net0158 gnd! gnd! n105  l=3e-08 w=4.89e-07 nf=1 m=1 ad=4.9878e-14 as=2.9829e-14
+	 ps=6.11e-07 pd=1.182e-06 SCC=0.0106338 SCA=160.1 SCB=0.0375459 nrd=0.208589
+	 nrs=0.124744
M_ld_M26 XI44/XI1/net058 net0158 gnd! gnd! n105  l=3e-08 w=4.89e-07 nf=1 m=1 ad=2.9829e-14 as=2.9829e-14
+	 ps=6.11e-07 pd=6.11e-07 SCC=0.0106338 SCA=160.1 SCB=0.0375459 nrd=0.124744
+	 nrs=0.124744
M_ld_M27 XI44/XI0/net017 XI44/XI0/net15 XI44/XI0/net033 gnd! n105  l=3e-08 w=3.27e-07 nf=1 m=1 ad=3.3354e-14 as=1.9947e-14
+	 ps=4.49e-07 pd=8.58e-07 SCC=0.00740192 SCA=53.7084 SCB=0.0387844 nrd=0.311927
+	 nrs=0.186544
M_ld_M28 XI44/XI0/net059 net069 XI44/XI0/net058 gnd! n105  l=3e-08 w=4.89e-07 nf=1 m=1 ad=2.9829e-14 as=2.9829e-14
+	 ps=6.11e-07 pd=6.11e-07 SCC=0.0106338 SCA=160.1 SCB=0.0375459 nrd=0.124744
+	 nrs=0.124744
M_ld_M29 XI44/XI0/net059 net069 XI44/XI0/net058 gnd! n105  l=3e-08 w=4.89e-07 nf=1 m=1 ad=4.8411e-14 as=2.9829e-14
+	 ps=6.11e-07 pd=1.176e-06 SCC=0.0106338 SCA=161.164 SCB=0.0376056 nrd=0.202454
+	 nrs=0.124744
M_ld_M30 XI44/XI0/net058 net076 gnd! gnd! n105  l=3e-08 w=4.89e-07 nf=1 m=1 ad=4.9878e-14 as=2.9829e-14
+	 ps=6.11e-07 pd=1.182e-06 SCC=0.0106338 SCA=160.1 SCB=0.0375459 nrd=0.208589
+	 nrs=0.124744
M_ld_M31 XI44/XI0/net058 net076 gnd! gnd! n105  l=3e-08 w=4.89e-07 nf=1 m=1 ad=2.9829e-14 as=2.9829e-14
+	 ps=6.11e-07 pd=6.11e-07 SCC=0.0106338 SCA=160.1 SCB=0.0375459 nrd=0.124744
+	 nrs=0.124744
M_ld_M32 XI44/XI2/net017 XI44/XI2/net15 XI44/XI2/net033 gnd! n105  l=3e-08 w=3.27e-07 nf=1 m=1 ad=3.3354e-14 as=1.9947e-14
+	 ps=4.49e-07 pd=8.58e-07 SCC=0.00740288 SCA=53.7206 SCB=0.0388055 nrd=0.311927
+	 nrs=0.186544
M_ld_M33 XI44/XI2/net059 net066 XI44/XI2/net058 gnd! n105  l=3e-08 w=4.89e-07 nf=1 m=1 ad=2.9829e-14 as=2.9829e-14
+	 ps=6.11e-07 pd=6.11e-07 SCC=0.0106344 SCA=160.111 SCB=0.0375634 nrd=0.124744
+	 nrs=0.124744
M_ld_M34 XI44/XI2/net059 net066 XI44/XI2/net058 gnd! n105  l=3e-08 w=4.89e-07 nf=1 m=1 ad=4.8411e-14 as=2.9829e-14
+	 ps=6.11e-07 pd=1.176e-06 SCC=0.0106344 SCA=161.174 SCB=0.0376231 nrd=0.202454
+	 nrs=0.124744
M_ld_M35 XI44/XI2/net058 net0163 gnd! gnd! n105  l=3e-08 w=4.89e-07 nf=1 m=1 ad=4.9878e-14 as=2.9829e-14
+	 ps=6.11e-07 pd=1.182e-06 SCC=0.0106344 SCA=160.111 SCB=0.0375634 nrd=0.208589
+	 nrs=0.124744
M_ld_M36 XI44/XI2/net058 net0163 gnd! gnd! n105  l=3e-08 w=4.89e-07 nf=1 m=1 ad=2.9829e-14 as=2.9829e-14
+	 ps=6.11e-07 pd=6.11e-07 SCC=0.0106344 SCA=160.111 SCB=0.0375634 nrd=0.124744
+	 nrs=0.124744
M_ld_M37 XI44/XI3/net017 XI44/XI3/net15 XI44/XI3/net033 gnd! n105  l=3e-08 w=3.27e-07 nf=1 m=1 ad=3.3354e-14 as=1.9947e-14
+	 ps=4.49e-07 pd=8.58e-07 SCC=0.00740288 SCA=53.7206 SCB=0.0388055 nrd=0.311927
+	 nrs=0.186544
M_ld_M38 XI44/XI3/net059 net078 XI44/XI3/net058 gnd! n105  l=3e-08 w=4.89e-07 nf=1 m=1 ad=2.9829e-14 as=2.9829e-14
+	 ps=6.11e-07 pd=6.11e-07 SCC=0.0106344 SCA=160.111 SCB=0.0375634 nrd=0.124744
+	 nrs=0.124744
M_ld_M39 XI44/XI3/net059 net078 XI44/XI3/net058 gnd! n105  l=3e-08 w=4.89e-07 nf=1 m=1 ad=4.8411e-14 as=2.9829e-14
+	 ps=6.11e-07 pd=1.176e-06 SCC=0.0106344 SCA=161.174 SCB=0.0376231 nrd=0.202454
+	 nrs=0.124744
M_ld_M40 XI44/XI3/net058 net073 gnd! gnd! n105  l=3e-08 w=4.89e-07 nf=1 m=1 ad=4.9878e-14 as=2.9829e-14
+	 ps=6.11e-07 pd=1.182e-06 SCC=0.0106344 SCA=160.111 SCB=0.0375634 nrd=0.208589
+	 nrs=0.124744
M_ld_M41 XI44/XI3/net058 net073 gnd! gnd! n105  l=3e-08 w=4.89e-07 nf=1 m=1 ad=2.9829e-14 as=2.9829e-14
+	 ps=6.11e-07 pd=6.11e-07 SCC=0.0106344 SCA=160.111 SCB=0.0375634 nrd=0.124744
+	 nrs=0.124744
M_XI46/MM3 net067 XI46/net05 XI46/net7 gnd! n105  l=3e-08 w=4.2e-07 nf=1 m=1 ad=4.284e-14 as=4.284e-14
+	 ps=1.044e-06 pd=1.044e-06 SCC=0.00933236 SCA=81.0134 SCB=0.0331156 nrd=0.242857
+	 nrs=0.242857
M_XI46/MM0 XI46/net8 XI46/net7 gnd! gnd! n105  l=3e-08 w=4.2e-07 nf=1 m=1 ad=4.284e-14 as=4.284e-14
+	 ps=1.044e-06 pd=1.044e-06 SCC=0.00933236 SCA=81.0134 SCB=0.0331156 nrd=0.242857
+	 nrs=0.242857
M_XI44/XI1/MM11 XI44/net030 XI44/XI1/net15 gnd! gnd! n105  l=3e-08 w=4.2e-07 nf=1 m=1 ad=4.242e-14 as=4.242e-14
+	 ps=1.042e-06 pd=1.042e-06 SCC=0.00944468 SCA=84.6686 SCB=0.0387494 nrd=0.240476
+	 nrs=0.240476
M_XI44/XI1/MM17 XI44/XI1/net033 net068 gnd! gnd! n105  l=3e-08 w=2.18e-07 nf=1 m=1 ad=2.18e-14 as=1.3298e-14
+	 ps=3.4e-07 pd=6.36e-07 SCC=0.00531446 SCA=39.194 SCB=0.0376487 nrd=0.458716
+	 nrs=0.279817
M_XI44/XI1/MM18 XI44/XI1/net033 net0158 gnd! gnd! n105  l=3e-08 w=2.18e-07 nf=1 m=1 ad=1.3298e-14 as=1.3298e-14
+	 ps=3.4e-07 pd=3.4e-07 SCC=0.00531446 SCA=39.194 SCB=0.0376487 nrd=0.279817
+	 nrs=0.279817
M_XI44/XI1/MM19 XI44/XI1/net033 XI44/net033 gnd! gnd! n105  l=3e-08 w=2.18e-07 nf=1 m=1 ad=1.3298e-14 as=2.2236e-14
+	 ps=6.4e-07 pd=3.4e-07 SCC=0.00531446 SCA=39.194 SCB=0.0376487 nrd=0.279817
+	 nrs=0.46789
M_ld_M48 XI44/XI1/net017 XI44/XI1/net15 XI44/XI1/net033 gnd! n105  l=3e-08 w=3.27e-07 nf=1 m=1 ad=3.3354e-14 as=1.9947e-14
+	 ps=4.49e-07 pd=8.58e-07 SCC=0.00740192 SCA=53.7084 SCB=0.0387844 nrd=0.311927
+	 nrs=0.186544
M_XI44/XI0/MM11 XI44/net033 XI44/XI0/net15 gnd! gnd! n105  l=3e-08 w=4.2e-07 nf=1 m=1 ad=4.242e-14 as=4.242e-14
+	 ps=1.042e-06 pd=1.042e-06 SCC=0.00944468 SCA=84.6686 SCB=0.0387494 nrd=0.240476
+	 nrs=0.240476
M_XI44/XI0/MM17 XI44/XI0/net033 net069 gnd! gnd! n105  l=3e-08 w=2.18e-07 nf=1 m=1 ad=2.18e-14 as=1.3298e-14
+	 ps=3.4e-07 pd=6.36e-07 SCC=0.00531446 SCA=39.194 SCB=0.0376487 nrd=0.458716
+	 nrs=0.279817
M_XI44/XI0/MM18 XI44/XI0/net033 net076 gnd! gnd! n105  l=3e-08 w=2.18e-07 nf=1 m=1 ad=1.3298e-14 as=1.3298e-14
+	 ps=3.4e-07 pd=3.4e-07 SCC=0.00531446 SCA=39.194 SCB=0.0376487 nrd=0.279817
+	 nrs=0.279817
M_XI44/XI0/MM19 XI44/XI0/net033 gnd! gnd! gnd! n105  l=3e-08 w=2.18e-07 nf=1 m=1 ad=1.3298e-14 as=2.2236e-14
+	 ps=6.4e-07 pd=3.4e-07 SCC=0.00531446 SCA=39.194 SCB=0.0376487 nrd=0.279817
+	 nrs=0.46789
M_ld_M53 XI44/XI0/net017 XI44/XI0/net15 XI44/XI0/net033 gnd! n105  l=3e-08 w=3.27e-07 nf=1 m=1 ad=3.3354e-14 as=1.9947e-14
+	 ps=4.49e-07 pd=8.58e-07 SCC=0.00740192 SCA=53.7084 SCB=0.0387844 nrd=0.311927
+	 nrs=0.186544
M_XI44/XI2/MM11 XI44/net35 XI44/XI2/net15 gnd! gnd! n105  l=3e-08 w=4.2e-07 nf=1 m=1 ad=4.242e-14 as=4.242e-14
+	 ps=1.042e-06 pd=1.042e-06 SCC=0.00944547 SCA=84.6796 SCB=0.0387683 nrd=0.240476
+	 nrs=0.240476
M_XI44/XI2/MM17 XI44/XI2/net033 net066 gnd! gnd! n105  l=3e-08 w=2.18e-07 nf=1 m=1 ad=2.18e-14 as=1.3298e-14
+	 ps=3.4e-07 pd=6.36e-07 SCC=0.00531571 SCA=39.2081 SCB=0.0376727 nrd=0.458716
+	 nrs=0.279817
M_XI44/XI2/MM18 XI44/XI2/net033 net0163 gnd! gnd! n105  l=3e-08 w=2.18e-07 nf=1 m=1 ad=1.3298e-14 as=1.3298e-14
+	 ps=3.4e-07 pd=3.4e-07 SCC=0.00531571 SCA=39.2081 SCB=0.0376727 nrd=0.279817
+	 nrs=0.279817
M_XI44/XI2/MM19 XI44/XI2/net033 XI44/net030 gnd! gnd! n105  l=3e-08 w=2.18e-07 nf=1 m=1 ad=1.3298e-14 as=2.2236e-14
+	 ps=6.4e-07 pd=3.4e-07 SCC=0.00531571 SCA=39.2081 SCB=0.0376727 nrd=0.279817
+	 nrs=0.46789
M_ld_M58 XI44/XI2/net017 XI44/XI2/net15 XI44/XI2/net033 gnd! n105  l=3e-08 w=3.27e-07 nf=1 m=1 ad=3.3354e-14 as=1.9947e-14
+	 ps=4.49e-07 pd=8.58e-07 SCC=0.00740288 SCA=53.7206 SCB=0.0388055 nrd=0.311927
+	 nrs=0.186544
M_XI44/XI3/MM11 net079 XI44/XI3/net15 gnd! gnd! n105  l=3e-08 w=4.2e-07 nf=1 m=1 ad=4.242e-14 as=4.242e-14
+	 ps=1.042e-06 pd=1.042e-06 SCC=0.00944547 SCA=84.6796 SCB=0.0387683 nrd=0.240476
+	 nrs=0.240476
M_XI44/XI3/MM17 XI44/XI3/net033 net078 gnd! gnd! n105  l=3e-08 w=2.18e-07 nf=1 m=1 ad=2.18e-14 as=1.3298e-14
+	 ps=3.4e-07 pd=6.36e-07 SCC=0.00531571 SCA=39.2081 SCB=0.0376727 nrd=0.458716
+	 nrs=0.279817
M_XI44/XI3/MM18 XI44/XI3/net033 net073 gnd! gnd! n105  l=3e-08 w=2.18e-07 nf=1 m=1 ad=1.3298e-14 as=1.3298e-14
+	 ps=3.4e-07 pd=3.4e-07 SCC=0.00531571 SCA=39.2081 SCB=0.0376727 nrd=0.279817
+	 nrs=0.279817
M_XI44/XI3/MM19 XI44/XI3/net033 XI44/net35 gnd! gnd! n105  l=3e-08 w=2.18e-07 nf=1 m=1 ad=1.3298e-14 as=2.2236e-14
+	 ps=6.4e-07 pd=3.4e-07 SCC=0.00531571 SCA=39.2081 SCB=0.0376727 nrd=0.279817
+	 nrs=0.46789
M_ld_M63 XI44/XI3/net017 XI44/XI3/net15 XI44/XI3/net033 gnd! n105  l=3e-08 w=3.27e-07 nf=1 m=1 ad=3.3354e-14 as=1.9947e-14
+	 ps=4.49e-07 pd=8.58e-07 SCC=0.00740288 SCA=53.7206 SCB=0.0388055 nrd=0.311927
+	 nrs=0.186544
M_ld_M64 XI46/net11 XI46/net8 gnd! gnd! n105  l=3e-08 w=3.14e-07 nf=1 m=1 ad=1.9154e-14 as=3.2028e-14
+	 ps=8.32e-07 pd=4.36e-07 SCC=0.00698411 SCA=47.2175 SCB=0.0322679 nrd=0.194268
+	 nrs=0.324841
M_ld_M65 XI46/net11 XI46/net8 gnd! gnd! n105  l=3e-08 w=3.14e-07 nf=1 m=1 ad=1.9154e-14 as=3.2028e-14
+	 ps=8.32e-07 pd=4.36e-07 SCC=0.00712627 SCA=51.2824 SCB=0.0387169 nrd=0.194268
+	 nrs=0.324841
M_ld_M66 XI46/net13 XI46/net12 gnd! gnd! n105  l=3e-08 w=4.7e-07 nf=1 m=1 ad=2.867e-14 as=4.794e-14
+	 ps=1.144e-06 pd=5.92e-07 SCC=0.0103786 SCA=127.88 SCB=0.0380302 nrd=0.129787
+	 nrs=0.217021
M_XI47/MM7 net067 XI47/net10 gnd! gnd! n105  l=3e-08 w=4.2e-07 nf=1 m=1 ad=4.284e-14 as=4.284e-14
+	 ps=1.044e-06 pd=1.044e-06 SCC=0.00944547 SCA=84.6796 SCB=0.0387683 nrd=0.242857
+	 nrs=0.242857
M_XI44/XI1/MM9 XI44/XI1/net23 net0158 gnd! gnd! n105  l=3e-08 w=2.1e-07 nf=1 m=1 ad=2.079e-14 as=1.281e-14
+	 ps=3.32e-07 pd=6.18e-07 SCC=0.00518455 SCA=38.5038 SCB=0.0375417 nrd=0.471429
+	 nrs=0.290476
M_XI44/XI1/MM6 XI44/XI1/net32 net0158 gnd! gnd! n105  l=3e-08 w=4.2e-07 nf=1 m=1 ad=2.562e-14 as=4.284e-14
+	 ps=1.044e-06 pd=5.42e-07 SCC=0.00944468 SCA=84.6686 SCB=0.0387494 nrd=0.145238
+	 nrs=0.242857
M_XI44/XI1/MM7 XI44/XI1/net15 XI44/net033 XI44/XI1/net23 gnd! n105  l=3e-08 w=4.2e-07 nf=1 m=1 ad=4.074e-14 as=2.562e-14
+	 ps=5.42e-07 pd=1.034e-06 SCC=0.00944468 SCA=84.6686 SCB=0.0387494 nrd=0.230952
+	 nrs=0.145238
M_XI44/XI1/MM1 XI44/XI1/net15 net068 XI44/XI1/net32 gnd! n105  l=3e-08 w=4.2e-07 nf=1 m=1 ad=2.562e-14 as=2.562e-14
+	 ps=5.42e-07 pd=5.42e-07 SCC=0.00944468 SCA=84.6686 SCB=0.0387494 nrd=0.145238
+	 nrs=0.145238
M_XI44/XI0/MM9 XI44/XI0/net23 net076 gnd! gnd! n105  l=3e-08 w=2.1e-07 nf=1 m=1 ad=2.079e-14 as=1.281e-14
+	 ps=3.32e-07 pd=6.18e-07 SCC=0.0051847 SCA=40.1766 SCB=0.037881 nrd=0.471429
+	 nrs=0.290476
M_XI44/XI0/MM6 XI44/XI0/net32 net076 gnd! gnd! n105  l=3e-08 w=4.2e-07 nf=1 m=1 ad=2.562e-14 as=4.284e-14
+	 ps=1.044e-06 pd=5.42e-07 SCC=0.00944468 SCA=84.6686 SCB=0.0387494 nrd=0.145238
+	 nrs=0.242857
M_XI44/XI0/MM7 XI44/XI0/net15 gnd! XI44/XI0/net23 gnd! n105  l=3e-08 w=4.2e-07 nf=1 m=1 ad=4.074e-14 as=2.562e-14
+	 ps=5.42e-07 pd=1.034e-06 SCC=0.0094447 SCA=85.9176 SCB=0.0388658 nrd=0.230952
+	 nrs=0.145238
M_XI44/XI0/MM1 XI44/XI0/net15 net069 XI44/XI0/net32 gnd! n105  l=3e-08 w=4.2e-07 nf=1 m=1 ad=2.562e-14 as=2.562e-14
+	 ps=5.42e-07 pd=5.42e-07 SCC=0.00944469 SCA=85.7637 SCB=0.0388171 nrd=0.145238
+	 nrs=0.145238
M_XI44/XI2/MM9 XI44/XI2/net23 net0163 gnd! gnd! n105  l=3e-08 w=2.1e-07 nf=1 m=1 ad=2.079e-14 as=1.281e-14
+	 ps=3.32e-07 pd=6.18e-07 SCC=0.00518598 SCA=40.1908 SCB=0.0379052 nrd=0.471429
+	 nrs=0.290476
M_XI44/XI2/MM6 XI44/XI2/net32 net0163 gnd! gnd! n105  l=3e-08 w=4.2e-07 nf=1 m=1 ad=2.562e-14 as=4.284e-14
+	 ps=1.044e-06 pd=5.42e-07 SCC=0.00944547 SCA=84.6796 SCB=0.0387683 nrd=0.145238
+	 nrs=0.242857
M_XI44/XI2/MM7 XI44/XI2/net15 XI44/net030 XI44/XI2/net23 gnd! n105  l=3e-08 w=4.2e-07 nf=1 m=1 ad=4.074e-14 as=2.562e-14
+	 ps=5.42e-07 pd=1.034e-06 SCC=0.00944549 SCA=85.9286 SCB=0.0388847 nrd=0.230952
+	 nrs=0.145238
M_XI44/XI2/MM1 XI44/XI2/net15 net066 XI44/XI2/net32 gnd! n105  l=3e-08 w=4.2e-07 nf=1 m=1 ad=2.562e-14 as=2.562e-14
+	 ps=5.42e-07 pd=5.42e-07 SCC=0.00944548 SCA=85.7747 SCB=0.038836 nrd=0.145238
+	 nrs=0.145238
M_XI44/XI3/MM9 XI44/XI3/net23 net073 gnd! gnd! n105  l=3e-08 w=2.1e-07 nf=1 m=1 ad=2.079e-14 as=1.281e-14
+	 ps=3.32e-07 pd=6.18e-07 SCC=0.00518583 SCA=38.518 SCB=0.0375659 nrd=0.471429
+	 nrs=0.290476
M_XI44/XI3/MM6 XI44/XI3/net32 net073 gnd! gnd! n105  l=3e-08 w=4.2e-07 nf=1 m=1 ad=2.562e-14 as=4.284e-14
+	 ps=1.044e-06 pd=5.42e-07 SCC=0.00944547 SCA=84.6796 SCB=0.0387683 nrd=0.145238
+	 nrs=0.242857
M_XI44/XI3/MM7 XI44/XI3/net15 XI44/net35 XI44/XI3/net23 gnd! n105  l=3e-08 w=4.2e-07 nf=1 m=1 ad=4.074e-14 as=2.562e-14
+	 ps=5.42e-07 pd=1.034e-06 SCC=0.00944547 SCA=84.6796 SCB=0.0387683 nrd=0.230952
+	 nrs=0.145238
M_XI44/XI3/MM1 XI44/XI3/net15 net078 XI44/XI3/net32 gnd! n105  l=3e-08 w=4.2e-07 nf=1 m=1 ad=2.562e-14 as=2.562e-14
+	 ps=5.42e-07 pd=5.42e-07 SCC=0.00944547 SCA=84.6796 SCB=0.0387683 nrd=0.145238
+	 nrs=0.145238
M_ld_M84 XI46/net13 XI46/net12 gnd! gnd! n105  l=3e-08 w=4.7e-07 nf=1 m=1 ad=2.867e-14 as=4.794e-14
+	 ps=1.144e-06 pd=5.92e-07 SCC=0.0103786 SCA=127.88 SCB=0.0380302 nrd=0.129787
+	 nrs=0.217021
M_XI47/MM10 XI47/net10 net079 gnd! gnd! n105  l=3e-08 w=1.4e-07 nf=1 m=1 ad=1.414e-14 as=1.428e-14
+	 ps=4.84e-07 pd=4.82e-07 SCC=0.00419018 SCA=33.7145 SCB=0.0365891 nrd=0.721429
+	 nrs=0.728571
M_XI46/MM11 XI46/net12 XI46/net05 F gnd! n105  l=3e-08 w=4.2e-07 nf=1 m=1 ad=4.284e-14 as=4.284e-14
+	 ps=1.044e-06 pd=1.044e-06 SCC=0.00944547 SCA=84.6796 SCB=0.0387683 nrd=0.242857
+	 nrs=0.242857
M_ld_M87 F XI46/net13 gnd! gnd! n105  l=3e-08 w=4.68e-07 nf=1 m=1 ad=4.7736e-14 as=2.8548e-14
+	 ps=5.9e-07 pd=1.14e-06 SCC=0.0103476 SCA=125.256 SCB=0.0380727 nrd=0.217949
+	 nrs=0.130342
M_ld_M88 F XI46/net13 gnd! gnd! n105  l=3e-08 w=4.68e-07 nf=1 m=1 ad=2.8548e-14 as=2.8548e-14
+	 ps=5.9e-07 pd=5.9e-07 SCC=0.0103476 SCA=125.256 SCB=0.0380727 nrd=0.130342
+	 nrs=0.130342
M_XI47/MM9 XI47/net10 net0105 gnd! gnd! n105  l=3e-08 w=1.4e-07 nf=1 m=1 ad=1.428e-14 as=1.428e-14
+	 ps=4.84e-07 pd=4.84e-07 SCC=0.00419018 SCA=33.7145 SCB=0.0365891 nrd=0.728571
+	 nrs=0.728571
M_XI44/XI1/MM8 XI44/XI1/net23 net068 gnd! gnd! n105  l=3e-08 w=2.1e-07 nf=1 m=1 ad=2.079e-14 as=1.281e-14
+	 ps=3.32e-07 pd=6.18e-07 SCC=0.00518455 SCA=38.5038 SCB=0.0375417 nrd=0.471429
+	 nrs=0.290476
M_XI44/XI0/MM8 XI44/XI0/net23 net069 gnd! gnd! n105  l=3e-08 w=2.1e-07 nf=1 m=1 ad=2.079e-14 as=1.281e-14
+	 ps=3.32e-07 pd=6.18e-07 SCC=0.00518502 SCA=40.4744 SCB=0.0381158 nrd=0.471429
+	 nrs=0.290476
M_XI44/XI2/MM8 XI44/XI2/net23 net066 gnd! gnd! n105  l=3e-08 w=2.1e-07 nf=1 m=1 ad=2.079e-14 as=1.281e-14
+	 ps=3.32e-07 pd=6.18e-07 SCC=0.0051863 SCA=40.4885 SCB=0.03814 nrd=0.471429
+	 nrs=0.290476
M_XI44/XI3/MM8 XI44/XI3/net23 net078 gnd! gnd! n105  l=3e-08 w=2.1e-07 nf=1 m=1 ad=2.079e-14 as=1.281e-14
+	 ps=3.32e-07 pd=6.18e-07 SCC=0.00518583 SCA=38.518 SCB=0.0375659 nrd=0.471429
+	 nrs=0.290476
M_ld_M94 F XI46/net13 gnd! gnd! n105  l=3e-08 w=4.68e-07 nf=1 m=1 ad=2.8548e-14 as=4.7736e-14
+	 ps=1.14e-06 pd=5.9e-07 SCC=0.0103476 SCA=125.256 SCB=0.0380727 nrd=0.130342
+	 nrs=0.217949
M_XI47/MM8 XI47/net10 net080 gnd! gnd! n105  l=3e-08 w=1.4e-07 nf=1 m=1 ad=1.414e-14 as=1.428e-14
+	 ps=4.84e-07 pd=4.82e-07 SCC=0.00419018 SCA=33.7145 SCB=0.0365891 nrd=0.721429
+	 nrs=0.728571
M_ld_M96 net069 XI34/net13 gnd! gnd! n105  l=3e-08 w=4.68e-07 nf=1 m=1 ad=2.8548e-14 as=2.8548e-14
+	 ps=5.9e-07 pd=5.9e-07 SCC=0.0103476 SCA=125.256 SCB=0.0380727 nrd=0.130342
+	 nrs=0.130342
M_ld_M97 net069 XI34/net13 gnd! gnd! n105  l=3e-08 w=4.68e-07 nf=1 m=1 ad=2.8548e-14 as=4.7736e-14
+	 ps=1.14e-06 pd=5.9e-07 SCC=0.0103476 SCA=125.256 SCB=0.0380727 nrd=0.130342
+	 nrs=0.217949
M_ld_M98 net069 XI34/net13 gnd! gnd! n105  l=3e-08 w=4.68e-07 nf=1 m=1 ad=4.7736e-14 as=2.8548e-14
+	 ps=5.9e-07 pd=1.14e-06 SCC=0.0103476 SCA=125.256 SCB=0.0380727 nrd=0.217949
+	 nrs=0.130342
M_XI34/MM11 XI34/net12 XI34/net05 net069 gnd! n105  l=3e-08 w=4.2e-07 nf=1 m=1 ad=4.284e-14 as=4.284e-14
+	 ps=1.044e-06 pd=1.044e-06 SCC=0.00944547 SCA=84.6796 SCB=0.0387683 nrd=0.242857
+	 nrs=0.242857
M_ld_M100 net068 XI35/net13 gnd! gnd! n105  l=3e-08 w=4.68e-07 nf=1 m=1 ad=2.8548e-14 as=2.8548e-14
+	 ps=5.9e-07 pd=5.9e-07 SCC=0.0103476 SCA=125.256 SCB=0.0380727 nrd=0.130342
+	 nrs=0.130342
M_ld_M101 net068 XI35/net13 gnd! gnd! n105  l=3e-08 w=4.68e-07 nf=1 m=1 ad=2.8548e-14 as=4.7736e-14
+	 ps=1.14e-06 pd=5.9e-07 SCC=0.0103476 SCA=125.256 SCB=0.0380727 nrd=0.130342
+	 nrs=0.217949
M_ld_M102 net068 XI35/net13 gnd! gnd! n105  l=3e-08 w=4.68e-07 nf=1 m=1 ad=4.7736e-14 as=2.8548e-14
+	 ps=5.9e-07 pd=1.14e-06 SCC=0.0103476 SCA=125.256 SCB=0.0380727 nrd=0.217949
+	 nrs=0.130342
M_XI35/MM11 XI35/net12 XI35/net05 net068 gnd! n105  l=3e-08 w=4.2e-07 nf=1 m=1 ad=4.284e-14 as=4.284e-14
+	 ps=1.044e-06 pd=1.044e-06 SCC=0.00944547 SCA=84.6796 SCB=0.0387683 nrd=0.242857
+	 nrs=0.242857
M_ld_M104 net078 XI37/net13 gnd! gnd! n105  l=3e-08 w=4.68e-07 nf=1 m=1 ad=2.8548e-14 as=2.8548e-14
+	 ps=5.9e-07 pd=5.9e-07 SCC=0.0103477 SCA=126.929 SCB=0.038412 nrd=0.130342
+	 nrs=0.130342
M_ld_M105 net078 XI37/net13 gnd! gnd! n105  l=3e-08 w=4.68e-07 nf=1 m=1 ad=2.8548e-14 as=4.7736e-14
+	 ps=1.14e-06 pd=5.9e-07 SCC=0.0103481 SCA=127.226 SCB=0.0386468 nrd=0.130342
+	 nrs=0.217949
M_ld_M106 net078 XI37/net13 gnd! gnd! n105  l=3e-08 w=4.68e-07 nf=1 m=1 ad=4.7736e-14 as=2.8548e-14
+	 ps=5.9e-07 pd=1.14e-06 SCC=0.0103476 SCA=126.694 SCB=0.038272 nrd=0.217949
+	 nrs=0.130342
M_ld_M107 net066 XI36/net13 gnd! gnd! n105  l=3e-08 w=4.68e-07 nf=1 m=1 ad=2.8548e-14 as=2.8548e-14
+	 ps=5.9e-07 pd=5.9e-07 SCC=0.0103476 SCA=125.256 SCB=0.0380727 nrd=0.130342
+	 nrs=0.130342
M_ld_M108 net066 XI36/net13 gnd! gnd! n105  l=3e-08 w=4.68e-07 nf=1 m=1 ad=2.8548e-14 as=4.7736e-14
+	 ps=1.14e-06 pd=5.9e-07 SCC=0.0103476 SCA=125.256 SCB=0.0380727 nrd=0.130342
+	 nrs=0.217949
M_ld_M109 net066 XI36/net13 gnd! gnd! n105  l=3e-08 w=4.68e-07 nf=1 m=1 ad=4.7736e-14 as=2.8548e-14
+	 ps=5.9e-07 pd=1.14e-06 SCC=0.0103476 SCA=125.256 SCB=0.0380727 nrd=0.217949
+	 nrs=0.130342
M_XI37/MM11 XI37/net12 XI37/net05 net078 gnd! n105  l=3e-08 w=4.2e-07 nf=1 m=1 ad=4.284e-14 as=4.284e-14
+	 ps=1.044e-06 pd=1.044e-06 SCC=0.00944548 SCA=85.7747 SCB=0.038836 nrd=0.242857
+	 nrs=0.242857
M_XI36/MM11 XI36/net12 XI36/net05 net066 gnd! n105  l=3e-08 w=4.2e-07 nf=1 m=1 ad=4.284e-14 as=4.284e-14
+	 ps=1.044e-06 pd=1.044e-06 SCC=0.00944547 SCA=84.6796 SCB=0.0387683 nrd=0.242857
+	 nrs=0.242857
M_ld_M112 net080 XI38/net13 gnd! gnd! n105  l=3e-08 w=4.68e-07 nf=1 m=1 ad=2.8548e-14 as=2.8548e-14
+	 ps=5.9e-07 pd=5.9e-07 SCC=0.0106467 SCA=128.129 SCB=0.0427037 nrd=0.130342
+	 nrs=0.130342
M_ld_M113 net080 XI38/net13 gnd! gnd! n105  l=3e-08 w=4.68e-07 nf=1 m=1 ad=2.8548e-14 as=4.7736e-14
+	 ps=1.14e-06 pd=5.9e-07 SCC=0.0106467 SCA=128.129 SCB=0.0427037 nrd=0.130342
+	 nrs=0.217949
M_ld_M114 net080 XI38/net13 gnd! gnd! n105  l=3e-08 w=4.68e-07 nf=1 m=1 ad=4.7736e-14 as=2.8548e-14
+	 ps=5.9e-07 pd=1.14e-06 SCC=0.0106467 SCA=128.129 SCB=0.0427037 nrd=0.217949
+	 nrs=0.130342
M_XI38/MM11 XI38/net12 XI38/net05 net080 gnd! n105  l=3e-08 w=4.2e-07 nf=1 m=1 ad=4.284e-14 as=4.284e-14
+	 ps=1.044e-06 pd=1.044e-06 SCC=0.00977323 SCA=87.7173 SCB=0.0436468 nrd=0.242857
+	 nrs=0.242857
M_ld_M116 net076 XI39/net13 gnd! gnd! n105  l=3e-08 w=4.68e-07 nf=1 m=1 ad=2.8548e-14 as=2.8548e-14
+	 ps=5.9e-07 pd=5.9e-07 SCC=0.0103476 SCA=125.256 SCB=0.0380727 nrd=0.130342
+	 nrs=0.130342
M_ld_M117 net076 XI39/net13 gnd! gnd! n105  l=3e-08 w=4.68e-07 nf=1 m=1 ad=2.8548e-14 as=4.7736e-14
+	 ps=1.14e-06 pd=5.9e-07 SCC=0.0103476 SCA=125.256 SCB=0.0380727 nrd=0.130342
+	 nrs=0.217949
M_ld_M118 net076 XI39/net13 gnd! gnd! n105  l=3e-08 w=4.68e-07 nf=1 m=1 ad=4.7736e-14 as=2.8548e-14
+	 ps=5.9e-07 pd=1.14e-06 SCC=0.0103476 SCA=125.256 SCB=0.0380727 nrd=0.217949
+	 nrs=0.130342
M_ld_M119 net0158 XI40/net13 gnd! gnd! n105  l=3e-08 w=4.68e-07 nf=1 m=1 ad=2.8548e-14 as=2.8548e-14
+	 ps=5.9e-07 pd=5.9e-07 SCC=0.0103476 SCA=125.256 SCB=0.0380727 nrd=0.130342
+	 nrs=0.130342
M_ld_M120 net0158 XI40/net13 gnd! gnd! n105  l=3e-08 w=4.68e-07 nf=1 m=1 ad=2.8548e-14 as=4.7736e-14
+	 ps=1.14e-06 pd=5.9e-07 SCC=0.0103476 SCA=125.256 SCB=0.0380727 nrd=0.130342
+	 nrs=0.217949
M_ld_M121 net0158 XI40/net13 gnd! gnd! n105  l=3e-08 w=4.68e-07 nf=1 m=1 ad=4.7736e-14 as=2.8548e-14
+	 ps=5.9e-07 pd=1.14e-06 SCC=0.0103476 SCA=125.256 SCB=0.0380727 nrd=0.217949
+	 nrs=0.130342
M_XI39/MM11 XI39/net12 XI39/net05 net076 gnd! n105  l=3e-08 w=4.2e-07 nf=1 m=1 ad=4.284e-14 as=4.284e-14
+	 ps=1.044e-06 pd=1.044e-06 SCC=0.00944547 SCA=84.6796 SCB=0.0387683 nrd=0.242857
+	 nrs=0.242857
M_XI40/MM11 XI40/net12 XI40/net05 net0158 gnd! n105  l=3e-08 w=4.2e-07 nf=1 m=1 ad=4.284e-14 as=4.284e-14
+	 ps=1.044e-06 pd=1.044e-06 SCC=0.00944547 SCA=84.6796 SCB=0.0387683 nrd=0.242857
+	 nrs=0.242857
M_ld_M124 XI34/net11 XI34/net8 gnd! gnd! n105  l=3e-08 w=3.14e-07 nf=1 m=1 ad=1.9154e-14 as=3.2028e-14
+	 ps=8.32e-07 pd=4.36e-07 SCC=0.00712627 SCA=51.2824 SCB=0.0387169 nrd=0.194268
+	 nrs=0.324841
M_ld_M125 XI34/net13 XI34/net12 gnd! gnd! n105  l=3e-08 w=4.7e-07 nf=1 m=1 ad=2.867e-14 as=4.794e-14
+	 ps=1.144e-06 pd=5.92e-07 SCC=0.0103786 SCA=127.88 SCB=0.0380302 nrd=0.129787
+	 nrs=0.217021
M_ld_M126 XI34/net13 XI34/net12 gnd! gnd! n105  l=3e-08 w=4.7e-07 nf=1 m=1 ad=2.867e-14 as=4.794e-14
+	 ps=1.144e-06 pd=5.92e-07 SCC=0.0103786 SCA=127.88 SCB=0.0380302 nrd=0.129787
+	 nrs=0.217021
M_ld_M127 XI35/net11 XI35/net8 gnd! gnd! n105  l=3e-08 w=3.14e-07 nf=1 m=1 ad=1.9154e-14 as=3.2028e-14
+	 ps=8.32e-07 pd=4.36e-07 SCC=0.00712627 SCA=51.2824 SCB=0.0387169 nrd=0.194268
+	 nrs=0.324841
M_ld_M128 XI35/net13 XI35/net12 gnd! gnd! n105  l=3e-08 w=4.7e-07 nf=1 m=1 ad=2.867e-14 as=4.794e-14
+	 ps=1.144e-06 pd=5.92e-07 SCC=0.0103786 SCA=127.88 SCB=0.0380302 nrd=0.129787
+	 nrs=0.217021
M_ld_M129 XI35/net13 XI35/net12 gnd! gnd! n105  l=3e-08 w=4.7e-07 nf=1 m=1 ad=2.867e-14 as=4.794e-14
+	 ps=1.144e-06 pd=5.92e-07 SCC=0.0103786 SCA=127.88 SCB=0.0380302 nrd=0.129787
+	 nrs=0.217021
M_ld_M130 XI37/net11 XI37/net8 gnd! gnd! n105  l=3e-08 w=3.14e-07 nf=1 m=1 ad=1.9154e-14 as=3.2028e-14
+	 ps=8.32e-07 pd=4.36e-07 SCC=0.00712629 SCA=52.5856 SCB=0.0388544 nrd=0.194268
+	 nrs=0.324841
M_ld_M131 XI37/net13 XI37/net12 gnd! gnd! n105  l=3e-08 w=4.7e-07 nf=1 m=1 ad=2.867e-14 as=4.794e-14
+	 ps=1.144e-06 pd=5.92e-07 SCC=0.0103786 SCA=127.88 SCB=0.0380302 nrd=0.129787
+	 nrs=0.217021
M_ld_M132 XI37/net13 XI37/net12 gnd! gnd! n105  l=3e-08 w=4.7e-07 nf=1 m=1 ad=2.867e-14 as=4.794e-14
+	 ps=1.144e-06 pd=5.92e-07 SCC=0.0103786 SCA=127.88 SCB=0.0380302 nrd=0.129787
+	 nrs=0.217021
M_ld_M133 XI36/net11 XI36/net8 gnd! gnd! n105  l=3e-08 w=3.14e-07 nf=1 m=1 ad=1.9154e-14 as=3.2028e-14
+	 ps=8.32e-07 pd=4.36e-07 SCC=0.00712627 SCA=51.2824 SCB=0.0387169 nrd=0.194268
+	 nrs=0.324841
M_ld_M134 XI36/net13 XI36/net12 gnd! gnd! n105  l=3e-08 w=4.7e-07 nf=1 m=1 ad=2.867e-14 as=4.794e-14
+	 ps=1.144e-06 pd=5.92e-07 SCC=0.0103786 SCA=127.88 SCB=0.0380302 nrd=0.129787
+	 nrs=0.217021
M_ld_M135 XI36/net13 XI36/net12 gnd! gnd! n105  l=3e-08 w=4.7e-07 nf=1 m=1 ad=2.867e-14 as=4.794e-14
+	 ps=1.144e-06 pd=5.92e-07 SCC=0.0103786 SCA=127.88 SCB=0.0380302 nrd=0.129787
+	 nrs=0.217021
M_ld_M136 XI38/net11 XI38/net8 gnd! gnd! n105  l=3e-08 w=3.14e-07 nf=1 m=1 ad=1.9154e-14 as=3.2028e-14
+	 ps=8.32e-07 pd=4.36e-07 SCC=0.00753633 SCA=54.7533 SCB=0.0441996 nrd=0.194268
+	 nrs=0.324841
M_ld_M137 XI38/net13 XI38/net12 gnd! gnd! n105  l=3e-08 w=4.7e-07 nf=1 m=1 ad=2.867e-14 as=4.794e-14
+	 ps=1.144e-06 pd=5.92e-07 SCC=0.0106766 SCA=130.747 SCB=0.0426512 nrd=0.129787
+	 nrs=0.217021
M_ld_M138 XI38/net13 XI38/net12 gnd! gnd! n105  l=3e-08 w=4.7e-07 nf=1 m=1 ad=2.867e-14 as=4.794e-14
+	 ps=1.144e-06 pd=5.92e-07 SCC=0.0106766 SCA=130.747 SCB=0.0426512 nrd=0.129787
+	 nrs=0.217021
M_ld_M139 XI39/net11 XI39/net8 gnd! gnd! n105  l=3e-08 w=3.14e-07 nf=1 m=1 ad=1.9154e-14 as=3.2028e-14
+	 ps=8.32e-07 pd=4.36e-07 SCC=0.00712627 SCA=51.2824 SCB=0.0387169 nrd=0.194268
+	 nrs=0.324841
M_ld_M140 XI39/net13 XI39/net12 gnd! gnd! n105  l=3e-08 w=4.7e-07 nf=1 m=1 ad=2.867e-14 as=4.794e-14
+	 ps=1.144e-06 pd=5.92e-07 SCC=0.0103786 SCA=127.88 SCB=0.0380302 nrd=0.129787
+	 nrs=0.217021
M_ld_M141 XI39/net13 XI39/net12 gnd! gnd! n105  l=3e-08 w=4.7e-07 nf=1 m=1 ad=2.867e-14 as=4.794e-14
+	 ps=1.144e-06 pd=5.92e-07 SCC=0.0103786 SCA=127.88 SCB=0.0380302 nrd=0.129787
+	 nrs=0.217021
M_ld_M142 XI40/net11 XI40/net8 gnd! gnd! n105  l=3e-08 w=3.14e-07 nf=1 m=1 ad=1.9154e-14 as=3.2028e-14
+	 ps=8.32e-07 pd=4.36e-07 SCC=0.00712627 SCA=51.2824 SCB=0.0387169 nrd=0.194268
+	 nrs=0.324841
M_ld_M143 XI40/net13 XI40/net12 gnd! gnd! n105  l=3e-08 w=4.7e-07 nf=1 m=1 ad=2.867e-14 as=4.794e-14
+	 ps=1.144e-06 pd=5.92e-07 SCC=0.0103786 SCA=127.88 SCB=0.0380302 nrd=0.129787
+	 nrs=0.217021
M_ld_M144 XI40/net13 XI40/net12 gnd! gnd! n105  l=3e-08 w=4.7e-07 nf=1 m=1 ad=2.867e-14 as=4.794e-14
+	 ps=1.144e-06 pd=5.92e-07 SCC=0.0103786 SCA=127.88 SCB=0.0380302 nrd=0.129787
+	 nrs=0.217021
M_XI34/MM3 net057 XI34/net05 XI34/net7 gnd! n105  l=3e-08 w=4.2e-07 nf=1 m=1 ad=4.284e-14 as=4.284e-14
+	 ps=1.044e-06 pd=1.044e-06 SCC=0.00944547 SCA=84.6796 SCB=0.0387683 nrd=0.242857
+	 nrs=0.242857
M_XI34/MM0 XI34/net8 XI34/net7 gnd! gnd! n105  l=3e-08 w=4.2e-07 nf=1 m=1 ad=4.284e-14 as=4.284e-14
+	 ps=1.044e-06 pd=1.044e-06 SCC=0.00944547 SCA=84.6796 SCB=0.0387683 nrd=0.242857
+	 nrs=0.242857