*
*|DSPF 1.3
*|DESIGN if_neuron_shortRun
*|DATE "Wed Apr 27 00:46:08 2022"
*|VENDOR "Synopsys"
*|PROGRAM "StarRC"
*|VERSION "K-2015.06-SP1"
*|DIVIDER |
*|DELIMITER :
**FORMAT STAR
*

** COMMENTS

** OPERATING_TEMPERATURE 25
** GLOBAL_TEMPERATURE 25
** TCAD_GRD_FILE /afs/asu.edu/users/j/n/e/jneuenda/425_proj_final/425_lab_3/iPDK/starrc/nominal/saed32nm_1p9m_nominal.nxtgrd
**   TCAD_TIME_STAMP Wed Mar 16 14:34:54 2011
**   TCADGRD_VERSION 72


.SUBCKT if_neuron_shortRun ln_CLK ln_W3 ln_W2 ln_gnd! ln_W1 ln_W0 ln_vdd! ln_F ln_X3<3> ln_X3<2> ln_X3<1> ln_X3<0> ln_X2<3> ln_X2<2> ln_X2<1> ln_X2<0> ln_X1<3> ln_X1<2> ln_X1<1> ln_X1<0> ln_X0<3> ln_X0<2> ln_X0<1> ln_X0<0>

*|GROUND_NET gnd!

*LAYER_MAP

*0 SUBSTRATE
*1 psub
*2 nwnr
*3 pwell
*4 nsd
*5 psd
*6 ntap
*7 ptap
*8 psdr
*9 nsdr
*10 ngatepl
*11 pgatepl
*12 subtie_scon
*13 subtie
*14 pdores
*15 ndores
*16 ngate_25
*17 pgate_25
*18 ngate_18
*19 pgate_18
*20 ponr
*21 ppores
*22 npores
*23 ppores_sblk
*24 npores_sblk
*25 m1
*26 m2
*27 m3
*28 m4
*29 m5
*30 m6
*31 m7
*32 m8
*33 m9
*34 mrdl
*35 pwell_cont
*36 nwell_cont
*37 codiff
*38 copoly
*39 via1
*40 via2
*41 via3
*42 via4
*43 via5
*44 via6
*45 via7
*46 via8
*47 viardl
*48 m1pin_marker
*49 m2pin_marker
*50 m3pin_marker
*51 m4pin_marker
*52 m5pin_marker
*53 m6pin_marker
*54 m7pin_marker
*55 m8pin_marker
*56 m9pin_marker
*57 l_0V_BJT_EMIT_NPN
*58 ngate_12
*59 pgate_12
*60 ngate_12_lvt
*61 pgate_12_lvt
*62 ngate_12_hvt
*63 pgate_12_hvt
*64 l_0V_BJT_BASE
*65 l_0V_BJT_COLL
*66 l_0V_BJT_EMIT
*67 l_0V_BJT_COLL_NPN
*68 l_0V_BJT_BASE_NPN


*|NET ln_X3<3> 0.000109266PF
*|P (ln_X3<3> B 0 0.38 0.268) // $llx=0.38 $lly=0.268 $urx=0.38 $ury=0.268 $lvl=48
*|I (F3615 ld_M620 DRN B 0 0.441 0.36) // $llx=0.441 $lly=0.36 $urx=0.441 $ury=0.36 $lvl=4
*|S (10244 0.3865 0.326) // $llx=0.31 $lly=0.326 $urx=0.463 $ury=0.326 $lvl=25
*|S (1111 0.3865 0.22) // $llx=0.31 $lly=0.199 $urx=0.463 $ury=0.241 $lvl=25
*|S (1034 0.3865 0.168) // $llx=0.31 $lly=0.15 $urx=0.463 $ury=0.186 $lvl=25
*|S (F24 0.38 0.268) // $llx=0.38 $lly=0.268 $urx=0.38 $ury=0.268 $lvl=48
Rxln_X3<3> ln_X3<3> F24 0.001
Cg9_1 1034 gnd! 5.9603e-17
Cg9_2 F3615 gnd! 4.96626e-17
R9_1 10244 F24 0.0379085 $l=0.058 $w=0.153 $lvl=25
R9_2 F24 1111 0.0313726 $l=0.048 $w=0.153 $lvl=25
R9_3 1111 1034 0.0339869 $l=0.052 $w=0.153 $lvl=25
R9_4 1111 F3615 150 $a=0.001764 $lvl=37

*|NET ln_N256 0.000397423PF
*|I (F6103 ld_M1242 DRN B 0 1.505 1.1815) // $llx=1.505 $lly=1.1815 $urx=1.505 $ury=1.1815 $lvl=5
*|I (F6099 ld_M1241 DRN B 0 1.383 1.1815) // $llx=1.383 $lly=1.1815 $urx=1.383 $ury=1.1815 $lvl=5
*|I (F6047 ld_M1228 DRN B 0 1.809 1.118) // $llx=1.809 $lly=1.118 $urx=1.809 $ury=1.118 $lvl=5
*|I (F6111 ld_M1244 DRN B 0 1.079 1.118) // $llx=1.079 $lly=1.118 $urx=1.079 $ury=1.118 $lvl=5
*|I (F3563 ld_M607 DRN B 0 1.505 0.307) // $llx=1.505 $lly=0.307 $urx=1.505 $ury=0.307 $lvl=4
*|I (F3559 ld_M606 DRN B 0 1.383 0.307) // $llx=1.383 $lly=0.307 $urx=1.383 $ury=0.307 $lvl=4
*|S (2974 1.6435 0.4035) // $llx=1.617 $lly=0.364 $urx=1.67 $ury=0.443 $lvl=25
*|S (2654 1.6435 1.0505) // $llx=1.617 $lly=1.011 $urx=1.67 $ury=1.09 $lvl=25
*|S (2672 1.4415 1.0505) // $llx=1.392 $lly=1.011 $urx=1.491 $ury=1.09 $lvl=25
*|S (3038 1.748 1.0505) // $llx=1.727 $lly=1.011 $urx=1.769 $ury=1.09 $lvl=25
*|S (2622 1.4415 0.9495) // $llx=1.392 $lly=0.91 $urx=1.491 $ury=0.989 $lvl=25
*|S (1902 1.793 1.0505) // $llx=1.793 $lly=1.011 $urx=1.793 $ury=1.09 $lvl=25
*|S (2270 1.14 0.9495) // $llx=1.119 $lly=0.91 $urx=1.161 $ury=0.989 $lvl=25
*|S (2670 1.444 0.4035) // $llx=1.423 $lly=0.364 $urx=1.465 $ury=0.443 $lvl=25
*|S (1966 1.05 0.9495) // $llx=1.05 $lly=0.91 $urx=1.05 $ury=0.989 $lvl=25
*|S (2318 1.392 0.4035) // $llx=1.392 $lly=0.364 $urx=1.392 $ury=0.443 $lvl=25
Cg957_3 F6103 gnd! 2.16678e-17
Cg957_4 2974 gnd! 1.21973e-16
Cg957_5 2654 gnd! 5.17974e-17
Cg957_6 F6047 gnd! 5.52473e-17
Cg957_7 2622 gnd! 6.22808e-17
Cg957_8 F6111 gnd! 6.51891e-17
Cg957_9 F3563 gnd! 1.92677e-17
R957_5 F6103 F6099 0.001 $l=0.122 $w=10 $lvl=5
R957_6 F6103 2672 150 $a=0.001764 $lvl=37
R957_7 2974 2654 1.1717 $l=0.647 $w=0.053 $lvl=25
R957_8 2974 2670 0.241392 $l=0.1995 $w=0.079 $lvl=25
R957_9 2654 2672 0.243038 $l=0.202 $w=0.079 $lvl=25
R957_10 2654 3038 0.132278 $l=0.1045 $w=0.079 $lvl=25
R957_11 2672 2622 0.0805051 $l=0.101 $w=0.099 $lvl=25
R957_12 3038 F6047 150 $a=0.001764 $lvl=37
R957_13 3038 1902 0.056962 $l=0.045 $w=0.079 $lvl=25
R957_14 2622 2270 0.334098 $l=0.3015 $w=0.079 $lvl=25
R957_15 2270 F6111 150 $a=0.001764 $lvl=37
R957_16 2270 1966 0.113924 $l=0.09 $w=0.079 $lvl=25
R957_17 2670 2318 0.0658228 $l=0.052 $w=0.079 $lvl=25
R957_18 2670 F3563 150 $a=0.001764 $lvl=37
R957_19 F3563 F3559 0.001 $l=0.122 $w=10 $lvl=4

*|NET ln_N258 0.000409496PF
*|I (F3547 ld_M603 DRN B 0 1.505 2.733) // $llx=1.505 $lly=2.733 $urx=1.505 $ury=2.733 $lvl=4
*|I (F3543 ld_M602 DRN B 0 1.383 2.733) // $llx=1.383 $lly=2.733 $urx=1.383 $ury=2.733 $lvl=4
*|I (F6035 ld_M1225 DRN B 0 1.809 1.922) // $llx=1.809 $lly=1.922 $urx=1.809 $ury=1.922 $lvl=5
*|I (F6087 ld_M1238 DRN B 0 1.079 1.922) // $llx=1.079 $lly=1.922 $urx=1.079 $ury=1.922 $lvl=5
*|I (F6095 ld_M1240 DRN B 0 1.505 1.8585) // $llx=1.505 $lly=1.8585 $urx=1.505 $ury=1.8585 $lvl=5
*|I (F6091 ld_M1239 DRN B 0 1.383 1.8585) // $llx=1.383 $lly=1.8585 $urx=1.383 $ury=1.8585 $lvl=5
*|S (2419 1.6435 1.9895) // $llx=1.617 $lly=1.95 $urx=1.67 $ury=2.029 $lvl=25
*|S (2639 1.6435 2.6365) // $llx=1.617 $lly=2.597 $urx=1.67 $ury=2.676 $lvl=25
*|S (2676 1.444 2.6365) // $llx=1.423 $lly=2.597 $urx=1.465 $ury=2.676 $lvl=25
*|S (2975 1.392 2.6365) // $llx=1.392 $lly=2.597 $urx=1.392 $ury=2.676 $lvl=25
*|S (3040 1.748 1.9895) // $llx=1.727 $lly=1.95 $urx=1.769 $ury=2.029 $lvl=25
*|S (2623 1.4415 1.9895) // $llx=1.392 $lly=1.95 $urx=1.491 $ury=2.029 $lvl=25
*|S (2322 1.793 1.9895) // $llx=1.793 $lly=1.95 $urx=1.793 $ury=2.029 $lvl=25
*|S (2223 1.4415 2.0905) // $llx=1.392 $lly=2.051 $urx=1.491 $ury=2.13 $lvl=25
*|S (2272 1.14 2.0905) // $llx=1.119 $lly=2.051 $urx=1.161 $ury=2.13 $lvl=25
*|S (1843 1.05 2.0905) // $llx=1.05 $lly=2.051 $urx=1.05 $ury=2.13 $lvl=25
Cg959_10 F3547 gnd! 2.15511e-17
Cg959_11 2419 gnd! 6.50454e-17
Cg959_12 2639 gnd! 6.1564e-17
Cg959_13 2623 gnd! 5.19167e-17
Cg959_14 2223 gnd! 6.75036e-17
Cg959_15 F6035 gnd! 5.8852e-17
Cg959_16 F6087 gnd! 6.05632e-17
Cg959_17 F6095 gnd! 2.24998e-17
R959_20 F3547 F3543 0.001 $l=0.122 $w=10 $lvl=4
R959_21 F3547 2676 150 $a=0.001764 $lvl=37
R959_22 2419 2639 1.1717 $l=0.647 $w=0.053 $lvl=25
R959_23 2419 3040 0.121139 $l=0.1045 $w=0.079 $lvl=25
R959_24 2419 2623 0.19701 $l=0.202 $w=0.079 $lvl=25
R959_25 2639 2676 0.252532 $l=0.1995 $w=0.079 $lvl=25
R959_26 2676 2975 0.0658228 $l=0.052 $w=0.079 $lvl=25
R959_27 3040 2322 0.056962 $l=0.045 $w=0.079 $lvl=25
R959_28 3040 F6035 150 $a=0.001764 $lvl=37
R959_29 2623 2223 0.0936364 $l=0.101 $w=0.099 $lvl=25
R959_30 2623 F6095 150 $a=0.001764 $lvl=37
R959_31 2223 2272 0.368987 $l=0.3015 $w=0.079 $lvl=25
R959_32 2272 F6087 150 $a=0.001764 $lvl=37
R959_33 2272 1843 0.113924 $l=0.09 $w=0.079 $lvl=25
R959_34 F6095 F6091 0.001 $l=0.122 $w=10 $lvl=5

*|NET ln_X3<1> 0.000105577PF
*|P (ln_X3<1> B 0 0.38 3.303) // $llx=0.38 $lly=3.303 $urx=0.38 $ury=3.303 $lvl=48
*|I (F3599 ld_M616 DRN B 0 0.441 3.4) // $llx=0.441 $lly=3.4 $urx=0.441 $ury=3.4 $lvl=4
*|S (1967 0.3865 3.361) // $llx=0.31 $lly=3.361 $urx=0.463 $ury=3.361 $lvl=25
*|S (1115 0.3865 3.26) // $llx=0.31 $lly=3.239 $urx=0.463 $ury=3.281 $lvl=25
*|S (1036 0.3865 3.2055) // $llx=0.31 $lly=3.19 $urx=0.463 $ury=3.221 $lvl=25
*|S (F22 0.38 3.303) // $llx=0.38 $lly=3.303 $urx=0.38 $ury=3.303 $lvl=48
Rxln_X3<1> ln_X3<1> F22 0.001
Cg11_18 1036 gnd! 5.86308e-17
Cg11_19 F3599 gnd! 4.69467e-17
R11_35 1967 F22 0.0379085 $l=0.058 $w=0.153 $lvl=25
R11_36 F22 1115 0.0281046 $l=0.043 $w=0.153 $lvl=25
R11_37 1115 1036 0.0356209 $l=0.0545 $w=0.153 $lvl=25
R11_38 1115 F3599 150 $a=0.001764 $lvl=37

*|NET ln_N259 0.000409599PF
*|I (F6079 ld_M1236 DRN B 0 1.505 4.2215) // $llx=1.505 $lly=4.2215 $urx=1.505 $ury=4.2215 $lvl=5
*|I (F6075 ld_M1235 DRN B 0 1.383 4.2215) // $llx=1.383 $lly=4.2215 $urx=1.383 $ury=4.2215 $lvl=5
*|I (F6031 ld_M1224 DRN B 0 1.809 4.158) // $llx=1.809 $lly=4.158 $urx=1.809 $ury=4.158 $lvl=5
*|I (F6071 ld_M1234 DRN B 0 1.079 4.158) // $llx=1.079 $lly=4.158 $urx=1.079 $ury=4.158 $lvl=5
*|I (F3539 ld_M601 DRN B 0 1.505 3.347) // $llx=1.505 $lly=3.347 $urx=1.505 $ury=3.347 $lvl=4
*|I (F3535 ld_M600 DRN B 0 1.383 3.347) // $llx=1.383 $lly=3.347 $urx=1.383 $ury=3.347 $lvl=4
*|S (2976 1.6435 3.4435) // $llx=1.617 $lly=3.404 $urx=1.67 $ury=3.483 $lvl=25
*|S (2656 1.6435 4.0905) // $llx=1.617 $lly=4.051 $urx=1.67 $ury=4.13 $lvl=25
*|S (2680 1.4415 4.0905) // $llx=1.392 $lly=4.051 $urx=1.491 $ury=4.13 $lvl=25
*|S (3042 1.748 4.0905) // $llx=1.727 $lly=4.051 $urx=1.769 $ury=4.13 $lvl=25
*|S (2624 1.4415 3.9895) // $llx=1.392 $lly=3.95 $urx=1.491 $ury=4.029 $lvl=25
*|S (1910 1.793 4.0905) // $llx=1.793 $lly=4.051 $urx=1.793 $ury=4.13 $lvl=25
*|S (2274 1.14 3.9895) // $llx=1.119 $lly=3.95 $urx=1.161 $ury=4.029 $lvl=25
*|S (2678 1.444 3.4435) // $llx=1.423 $lly=3.404 $urx=1.465 $ury=3.483 $lvl=25
*|S (1968 1.05 3.9895) // $llx=1.05 $lly=3.95 $urx=1.05 $ury=4.029 $lvl=25
*|S (2326 1.392 3.4435) // $llx=1.392 $lly=3.404 $urx=1.392 $ury=3.483 $lvl=25
Cg960_20 F6079 gnd! 2.59228e-17
Cg960_21 2976 gnd! 1.19448e-16
Cg960_22 2656 gnd! 5.22648e-17
Cg960_23 F6031 gnd! 6.04662e-17
Cg960_24 2624 gnd! 6.36934e-17
Cg960_25 F6071 gnd! 6.27858e-17
Cg960_26 F3539 gnd! 2.50173e-17
R960_39 F6079 F6075 0.001 $l=0.122 $w=10 $lvl=5
R960_40 F6079 2680 150 $a=0.001764 $lvl=37
R960_41 2976 2656 1.1717 $l=0.647 $w=0.053 $lvl=25
R960_42 2976 2678 0.241392 $l=0.1995 $w=0.079 $lvl=25
R960_43 2656 2680 0.243038 $l=0.202 $w=0.079 $lvl=25
R960_44 2656 3042 0.132278 $l=0.1045 $w=0.079 $lvl=25
R960_45 2680 2624 0.0805051 $l=0.101 $w=0.099 $lvl=25
R960_46 3042 F6031 150 $a=0.001764 $lvl=37
R960_47 3042 1910 0.056962 $l=0.045 $w=0.079 $lvl=25
R960_48 2624 2274 0.334098 $l=0.3015 $w=0.079 $lvl=25
R960_49 2274 F6071 150 $a=0.001764 $lvl=37
R960_50 2274 1968 0.113924 $l=0.09 $w=0.079 $lvl=25
R960_51 2678 2326 0.0658228 $l=0.052 $w=0.079 $lvl=25
R960_52 2678 F3539 150 $a=0.001764 $lvl=37
R960_53 F3539 F3535 0.001 $l=0.122 $w=10 $lvl=4

*|NET ln_N262 0.000398514PF
*|I (F3527 ld_M598 DRN B 0 1.505 5.773) // $llx=1.505 $lly=5.773 $urx=1.505 $ury=5.773 $lvl=4
*|I (F3523 ld_M597 DRN B 0 1.383 5.773) // $llx=1.383 $lly=5.773 $urx=1.383 $ury=5.773 $lvl=4
*|I (F6027 ld_M1223 DRN B 0 1.809 4.962) // $llx=1.809 $lly=4.962 $urx=1.809 $ury=4.962 $lvl=5
*|I (F6055 ld_M1230 DRN B 0 1.079 4.962) // $llx=1.079 $lly=4.962 $urx=1.079 $ury=4.962 $lvl=5
*|I (F6063 ld_M1232 DRN B 0 1.505 4.8985) // $llx=1.505 $lly=4.8985 $urx=1.505 $ury=4.8985 $lvl=5
*|I (F6059 ld_M1231 DRN B 0 1.383 4.8985) // $llx=1.383 $lly=4.8985 $urx=1.383 $ury=4.8985 $lvl=5
*|S (2427 1.6435 5.0295) // $llx=1.617 $lly=4.99 $urx=1.67 $ury=5.069 $lvl=25
*|S (2641 1.6435 5.6765) // $llx=1.617 $lly=5.637 $urx=1.67 $ury=5.716 $lvl=25
*|S (2684 1.444 5.6765) // $llx=1.423 $lly=5.637 $urx=1.465 $ury=5.716 $lvl=25
*|S (2977 1.392 5.6765) // $llx=1.392 $lly=5.637 $urx=1.392 $ury=5.716 $lvl=25
*|S (3044 1.748 5.0295) // $llx=1.727 $lly=4.99 $urx=1.769 $ury=5.069 $lvl=25
*|S (2625 1.4415 5.0295) // $llx=1.392 $lly=4.99 $urx=1.491 $ury=5.069 $lvl=25
*|S (2330 1.793 5.0295) // $llx=1.793 $lly=4.99 $urx=1.793 $ury=5.069 $lvl=25
*|S (2225 1.4415 5.1305) // $llx=1.392 $lly=5.091 $urx=1.491 $ury=5.17 $lvl=25
*|S (2276 1.14 5.1305) // $llx=1.119 $lly=5.091 $urx=1.161 $ury=5.17 $lvl=25
*|S (1851 1.05 5.1305) // $llx=1.05 $lly=5.091 $urx=1.05 $ury=5.17 $lvl=25
Cg963_27 F3527 gnd! 2.00419e-17
Cg963_28 2427 gnd! 5.92764e-17
Cg963_29 2641 gnd! 6.12976e-17
Cg963_30 2625 gnd! 4.72833e-17
Cg963_31 2225 gnd! 7.11387e-17
Cg963_32 F6027 gnd! 5.85232e-17
Cg963_33 F6055 gnd! 5.82776e-17
Cg963_34 F6063 gnd! 2.26754e-17
R963_54 F3527 F3523 0.001 $l=0.122 $w=10 $lvl=4
R963_55 F3527 2684 150 $a=0.001764 $lvl=37
R963_56 2427 2641 1.1717 $l=0.647 $w=0.053 $lvl=25
R963_57 2427 3044 0.121139 $l=0.1045 $w=0.079 $lvl=25
R963_58 2427 2625 0.19701 $l=0.202 $w=0.079 $lvl=25
R963_59 2641 2684 0.252532 $l=0.1995 $w=0.079 $lvl=25
R963_60 2684 2977 0.0658228 $l=0.052 $w=0.079 $lvl=25
R963_61 3044 2330 0.056962 $l=0.045 $w=0.079 $lvl=25
R963_62 3044 F6027 150 $a=0.001764 $lvl=37
R963_63 2625 2225 0.0936364 $l=0.101 $w=0.099 $lvl=25
R963_64 2625 F6063 150 $a=0.001764 $lvl=37
R963_65 2225 2276 0.368987 $l=0.3015 $w=0.079 $lvl=25
R963_66 2276 F6055 150 $a=0.001764 $lvl=37
R963_67 2276 1851 0.113924 $l=0.09 $w=0.079 $lvl=25
R963_68 F6063 F6059 0.001 $l=0.122 $w=10 $lvl=5

*|NET ln_X3<0> 0.000118261PF
*|P (ln_X3<0> B 0 0.38 5.873) // $llx=0.38 $lly=5.873 $urx=0.38 $ury=5.873 $lvl=48
*|I (F3591 ld_M614 DRN B 0 0.441 5.72) // $llx=0.441 $lly=5.72 $urx=0.441 $ury=5.72 $lvl=4
*|S (1037 0.3865 5.7785) // $llx=0.31 $lly=5.766 $urx=0.463 $ury=5.791 $lvl=25
*|S (1717 0.3865 5.931) // $llx=0.31 $lly=5.931 $urx=0.463 $ury=5.931 $lvl=25
*|S (F21 0.38 5.873) // $llx=0.38 $lly=5.873 $urx=0.38 $ury=5.873 $lvl=48
Rxln_X3<0> ln_X3<0> F21 0.001
Cg12_35 1037 gnd! 6.24625e-17
Cg12_36 F3591 gnd! 5.57987e-17
R12_69 F21 1037 0.053268 $l=0.0945 $w=0.153 $lvl=25
R12_70 F21 1717 0.0464052 $l=0.058 $w=0.153 $lvl=25
R12_71 F21 F3591 150 $a=0.001764 $lvl=37

*|NET ln_X2<3> 0.00010792PF
*|P (ln_X2<3> B 0 0.38 6.336) // $llx=0.38 $lly=6.336 $urx=0.38 $ury=6.336 $lvl=48
*|I (F3583 ld_M612 DRN B 0 0.441 6.44) // $llx=0.441 $lly=6.44 $urx=0.441 $ury=6.44 $lvl=4
*|S (1969 0.3865 6.394) // $llx=0.31 $lly=6.394 $urx=0.463 $ury=6.394 $lvl=25
*|S (1119 0.3865 6.3) // $llx=0.31 $lly=6.279 $urx=0.463 $ury=6.321 $lvl=25
*|S (1038 0.3865 6.242) // $llx=0.31 $lly=6.23 $urx=0.463 $ury=6.254 $lvl=25
*|S (F20 0.38 6.336) // $llx=0.38 $lly=6.336 $urx=0.38 $ury=6.336 $lvl=48
Rxln_X2<3> ln_X2<3> F20 0.001
Cg13_37 1038 gnd! 5.73477e-17
Cg13_38 F3583 gnd! 5.05726e-17
R13_72 1969 F20 0.0379085 $l=0.058 $w=0.153 $lvl=25
R13_73 F20 1119 0.0235294 $l=0.036 $w=0.153 $lvl=25
R13_74 1119 1038 0.0379085 $l=0.058 $w=0.153 $lvl=25
R13_75 1119 F3583 150 $a=0.001764 $lvl=37

*|NET ln_N263 0.000411071PF
*|I (F5475 ld_M1085 DRN B 0 1.505 7.2615) // $llx=1.505 $lly=7.2615 $urx=1.505 $ury=7.2615 $lvl=5
*|I (F5471 ld_M1084 DRN B 0 1.383 7.2615) // $llx=1.383 $lly=7.2615 $urx=1.383 $ury=7.2615 $lvl=5
*|I (F5283 ld_M1037 DRN B 0 1.809 7.198) // $llx=1.809 $lly=7.198 $urx=1.809 $ury=7.198 $lvl=5
*|I (F5467 ld_M1083 DRN B 0 1.079 7.198) // $llx=1.079 $lly=7.198 $urx=1.079 $ury=7.198 $lvl=5
*|I (F3515 ld_M595 DRN B 0 1.505 6.387) // $llx=1.505 $lly=6.387 $urx=1.505 $ury=6.387 $lvl=4
*|I (F3511 ld_M594 DRN B 0 1.383 6.387) // $llx=1.383 $lly=6.387 $urx=1.383 $ury=6.387 $lvl=4
*|S (2978 1.6435 6.4835) // $llx=1.617 $lly=6.444 $urx=1.67 $ury=6.523 $lvl=25
*|S (2658 1.6435 7.1305) // $llx=1.617 $lly=7.091 $urx=1.67 $ury=7.17 $lvl=25
*|S (2688 1.4415 7.1305) // $llx=1.392 $lly=7.091 $urx=1.491 $ury=7.17 $lvl=25
*|S (3046 1.748 7.1305) // $llx=1.727 $lly=7.091 $urx=1.769 $ury=7.17 $lvl=25
*|S (2626 1.4415 7.0295) // $llx=1.392 $lly=6.99 $urx=1.491 $ury=7.069 $lvl=25
*|S (1918 1.793 7.1305) // $llx=1.793 $lly=7.091 $urx=1.793 $ury=7.17 $lvl=25
*|S (2278 1.14 7.0295) // $llx=1.119 $lly=6.99 $urx=1.161 $ury=7.069 $lvl=25
*|S (2686 1.444 6.4835) // $llx=1.423 $lly=6.444 $urx=1.465 $ury=6.523 $lvl=25
*|S (1970 1.05 7.0295) // $llx=1.05 $lly=6.99 $urx=1.05 $ury=7.069 $lvl=25
*|S (2334 1.392 6.4835) // $llx=1.392 $lly=6.444 $urx=1.392 $ury=6.523 $lvl=25
Cg964_39 F5475 gnd! 2.38747e-17
Cg964_40 2978 gnd! 1.18688e-16
Cg964_41 2658 gnd! 5.31842e-17
Cg964_42 F5283 gnd! 6.18412e-17
Cg964_43 2626 gnd! 6.86956e-17
Cg964_44 F5467 gnd! 6.24559e-17
Cg964_45 F3515 gnd! 2.23313e-17
R964_76 F5475 F5471 0.001 $l=0.122 $w=10 $lvl=5
R964_77 F5475 2688 150 $a=0.001764 $lvl=37
R964_78 2978 2658 1.1717 $l=0.647 $w=0.053 $lvl=25
R964_79 2978 2686 0.241392 $l=0.1995 $w=0.079 $lvl=25
R964_80 2658 2688 0.243038 $l=0.202 $w=0.079 $lvl=25
R964_81 2658 3046 0.132278 $l=0.1045 $w=0.079 $lvl=25
R964_82 2688 2626 0.0805051 $l=0.101 $w=0.099 $lvl=25
R964_83 3046 F5283 150 $a=0.001764 $lvl=37
R964_84 3046 1918 0.056962 $l=0.045 $w=0.079 $lvl=25
R964_85 2626 2278 0.334098 $l=0.3015 $w=0.079 $lvl=25
R964_86 2278 F5467 150 $a=0.001764 $lvl=37
R964_87 2278 1970 0.113924 $l=0.09 $w=0.079 $lvl=25
R964_88 2686 2334 0.0658228 $l=0.052 $w=0.079 $lvl=25
R964_89 2686 F3515 150 $a=0.001764 $lvl=37
R964_90 F3515 F3511 0.001 $l=0.122 $w=10 $lvl=4

*|NET ln_N278 0.000412682PF
*|I (F3503 ld_M592 DRN B 0 1.505 8.813) // $llx=1.505 $lly=8.813 $urx=1.505 $ury=8.813 $lvl=4
*|I (F3499 ld_M591 DRN B 0 1.383 8.813) // $llx=1.383 $lly=8.813 $urx=1.383 $ury=8.813 $lvl=4
*|I (F5279 ld_M1036 DRN B 0 1.809 8.002) // $llx=1.809 $lly=8.002 $urx=1.809 $ury=8.002 $lvl=5
*|I (F5451 ld_M1079 DRN B 0 1.079 8.002) // $llx=1.079 $lly=8.002 $urx=1.079 $ury=8.002 $lvl=5
*|I (F5459 ld_M1081 DRN B 0 1.505 7.9385) // $llx=1.505 $lly=7.9385 $urx=1.505 $ury=7.9385 $lvl=5
*|I (F5455 ld_M1080 DRN B 0 1.383 7.9385) // $llx=1.383 $lly=7.9385 $urx=1.383 $ury=7.9385 $lvl=5
*|S (2435 1.6435 8.0695) // $llx=1.617 $lly=8.03 $urx=1.67 $ury=8.109 $lvl=25
*|S (2643 1.6435 8.7165) // $llx=1.617 $lly=8.677 $urx=1.67 $ury=8.756 $lvl=25
*|S (2692 1.444 8.7165) // $llx=1.423 $lly=8.677 $urx=1.465 $ury=8.756 $lvl=25
*|S (2979 1.392 8.7165) // $llx=1.392 $lly=8.677 $urx=1.392 $ury=8.756 $lvl=25
*|S (3048 1.748 8.0695) // $llx=1.727 $lly=8.03 $urx=1.769 $ury=8.109 $lvl=25
*|S (2627 1.4415 8.0695) // $llx=1.392 $lly=8.03 $urx=1.491 $ury=8.109 $lvl=25
*|S (2338 1.793 8.0695) // $llx=1.793 $lly=8.03 $urx=1.793 $ury=8.109 $lvl=25
*|S (2227 1.4415 8.1705) // $llx=1.392 $lly=8.131 $urx=1.491 $ury=8.21 $lvl=25
*|S (2280 1.14 8.1705) // $llx=1.119 $lly=8.131 $urx=1.161 $ury=8.21 $lvl=25
*|S (1859 1.05 8.1705) // $llx=1.05 $lly=8.131 $urx=1.05 $ury=8.21 $lvl=25
Cg979_46 F3503 gnd! 2.03218e-17
Cg979_47 2435 gnd! 6.18967e-17
Cg979_48 2643 gnd! 6.07047e-17
Cg979_49 2627 gnd! 5.83162e-17
Cg979_50 2227 gnd! 6.96797e-17
Cg979_51 F5279 gnd! 5.85749e-17
Cg979_52 F5451 gnd! 6.08357e-17
Cg979_53 F5459 gnd! 2.23526e-17
R979_91 F3503 F3499 0.001 $l=0.122 $w=10 $lvl=4
R979_92 F3503 2692 150 $a=0.001764 $lvl=37
R979_93 2435 2643 1.1717 $l=0.647 $w=0.053 $lvl=25
R979_94 2435 3048 0.121139 $l=0.1045 $w=0.079 $lvl=25
R979_95 2435 2627 0.19701 $l=0.202 $w=0.079 $lvl=25
R979_96 2643 2692 0.252532 $l=0.1995 $w=0.079 $lvl=25
R979_97 2692 2979 0.0658228 $l=0.052 $w=0.079 $lvl=25
R979_98 3048 2338 0.056962 $l=0.045 $w=0.079 $lvl=25
R979_99 3048 F5279 150 $a=0.001764 $lvl=37
R979_100 2627 2227 0.0936364 $l=0.101 $w=0.099 $lvl=25
R979_101 2627 F5459 150 $a=0.001764 $lvl=37
R979_102 2227 2280 0.368987 $l=0.3015 $w=0.079 $lvl=25
R979_103 2280 F5451 150 $a=0.001764 $lvl=37
R979_104 2280 1859 0.113924 $l=0.09 $w=0.079 $lvl=25
R979_105 F5459 F5455 0.001 $l=0.122 $w=10 $lvl=5

*|NET ln_N279 0.000416656PF
*|I (F5443 ld_M1077 DRN B 0 1.505 10.3015) // $llx=1.505 $lly=10.3015 $urx=1.505 $ury=10.3015 $lvl=5
*|I (F5439 ld_M1076 DRN B 0 1.383 10.3015) // $llx=1.383 $lly=10.3015 $urx=1.383 $ury=10.3015 $lvl=5
*|I (F5267 ld_M1033 DRN B 0 1.809 10.238) // $llx=1.809 $lly=10.238 $urx=1.809 $ury=10.238 $lvl=5
*|I (F5435 ld_M1075 DRN B 0 1.079 10.238) // $llx=1.079 $lly=10.238 $urx=1.079 $ury=10.238 $lvl=5
*|I (F3491 ld_M589 DRN B 0 1.505 9.427) // $llx=1.505 $lly=9.427 $urx=1.505 $ury=9.427 $lvl=4
*|I (F3487 ld_M588 DRN B 0 1.383 9.427) // $llx=1.383 $lly=9.427 $urx=1.383 $ury=9.427 $lvl=4
*|S (2980 1.6435 9.5235) // $llx=1.617 $lly=9.484 $urx=1.67 $ury=9.563 $lvl=25
*|S (2660 1.6435 10.1705) // $llx=1.617 $lly=10.131 $urx=1.67 $ury=10.21 $lvl=25
*|S (2696 1.4415 10.1705) // $llx=1.392 $lly=10.131 $urx=1.491 $ury=10.21 $lvl=25
*|S (3050 1.748 10.1705) // $llx=1.727 $lly=10.131 $urx=1.769 $ury=10.21 $lvl=25
*|S (2628 1.4415 10.0695) // $llx=1.392 $lly=10.03 $urx=1.491 $ury=10.109 $lvl=25
*|S (1926 1.793 10.1705) // $llx=1.793 $lly=10.131 $urx=1.793 $ury=10.21 $lvl=25
*|S (2282 1.14 10.0695) // $llx=1.119 $lly=10.03 $urx=1.161 $ury=10.109 $lvl=25
*|S (2694 1.444 9.5235) // $llx=1.423 $lly=9.484 $urx=1.465 $ury=9.563 $lvl=25
*|S (1972 1.05 10.0695) // $llx=1.05 $lly=10.03 $urx=1.05 $ury=10.109 $lvl=25
*|S (2342 1.392 9.5235) // $llx=1.392 $lly=9.484 $urx=1.392 $ury=9.563 $lvl=25
Cg980_54 F5443 gnd! 2.5553e-17
Cg980_55 2980 gnd! 1.20034e-16
Cg980_56 2660 gnd! 5.92009e-17
Cg980_57 F5267 gnd! 5.842e-17
Cg980_58 2628 gnd! 6.86711e-17
Cg980_59 F5435 gnd! 6.37117e-17
Cg980_60 F3491 gnd! 2.10656e-17
R980_106 F5443 F5439 0.001 $l=0.122 $w=10 $lvl=5
R980_107 F5443 2696 150 $a=0.001764 $lvl=37
R980_108 2980 2660 1.1717 $l=0.647 $w=0.053 $lvl=25
R980_109 2980 2694 0.241392 $l=0.1995 $w=0.079 $lvl=25
R980_110 2660 2696 0.243038 $l=0.202 $w=0.079 $lvl=25
R980_111 2660 3050 0.132278 $l=0.1045 $w=0.079 $lvl=25
R980_112 2696 2628 0.0805051 $l=0.101 $w=0.099 $lvl=25
R980_113 3050 F5267 150 $a=0.001764 $lvl=37
R980_114 3050 1926 0.056962 $l=0.045 $w=0.079 $lvl=25
R980_115 2628 2282 0.334098 $l=0.3015 $w=0.079 $lvl=25
R980_116 2282 F5435 150 $a=0.001764 $lvl=37
R980_117 2282 1972 0.113924 $l=0.09 $w=0.079 $lvl=25
R980_118 2694 2342 0.0658228 $l=0.052 $w=0.079 $lvl=25
R980_119 2694 F3491 150 $a=0.001764 $lvl=37
R980_120 F3491 F3487 0.001 $l=0.122 $w=10 $lvl=4

*|NET ln_N294 0.000409177PF
*|I (F2647 ld_M378 DRN B 0 1.505 11.853) // $llx=1.505 $lly=11.853 $urx=1.505 $ury=11.853 $lvl=4
*|I (F2643 ld_M377 DRN B 0 1.383 11.853) // $llx=1.383 $lly=11.853 $urx=1.383 $ury=11.853 $lvl=4
*|I (F5263 ld_M1032 DRN B 0 1.809 11.042) // $llx=1.809 $lly=11.042 $urx=1.809 $ury=11.042 $lvl=5
*|I (F5419 ld_M1071 DRN B 0 1.079 11.042) // $llx=1.079 $lly=11.042 $urx=1.079 $ury=11.042 $lvl=5
*|I (F5427 ld_M1073 DRN B 0 1.505 10.9785) // $llx=1.505 $lly=10.9785 $urx=1.505 $ury=10.9785 $lvl=5
*|I (F5423 ld_M1072 DRN B 0 1.383 10.9785) // $llx=1.383 $lly=10.9785 $urx=1.383 $ury=10.9785 $lvl=5
*|S (2443 1.6435 11.1095) // $llx=1.617 $lly=11.07 $urx=1.67 $ury=11.149 $lvl=25
*|S (2645 1.6435 11.7565) // $llx=1.617 $lly=11.717 $urx=1.67 $ury=11.796 $lvl=25
*|S (2700 1.444 11.7565) // $llx=1.423 $lly=11.717 $urx=1.465 $ury=11.796 $lvl=25
*|S (2981 1.392 11.7565) // $llx=1.392 $lly=11.717 $urx=1.392 $ury=11.796 $lvl=25
*|S (3052 1.748 11.1095) // $llx=1.727 $lly=11.07 $urx=1.769 $ury=11.149 $lvl=25
*|S (2629 1.4415 11.1095) // $llx=1.392 $lly=11.07 $urx=1.491 $ury=11.149 $lvl=25
*|S (2346 1.793 11.1095) // $llx=1.793 $lly=11.07 $urx=1.793 $ury=11.149 $lvl=25
*|S (2229 1.4415 11.2105) // $llx=1.392 $lly=11.171 $urx=1.491 $ury=11.25 $lvl=25
*|S (2284 1.14 11.2105) // $llx=1.119 $lly=11.171 $urx=1.161 $ury=11.25 $lvl=25
*|S (1867 1.05 11.2105) // $llx=1.05 $lly=11.171 $urx=1.05 $ury=11.25 $lvl=25
Cg995_61 F2647 gnd! 2.28735e-17
Cg995_62 2443 gnd! 6.05908e-17
Cg995_63 2645 gnd! 6.20149e-17
Cg995_64 2629 gnd! 4.8972e-17
Cg995_65 2229 gnd! 6.84832e-17
Cg995_66 F5263 gnd! 6.0158e-17
Cg995_67 F5419 gnd! 6.34469e-17
Cg995_68 F5427 gnd! 2.26374e-17
R995_121 F2647 F2643 0.001 $l=0.122 $w=10 $lvl=4
R995_122 F2647 2700 150 $a=0.001764 $lvl=37
R995_123 2443 2645 1.1717 $l=0.647 $w=0.053 $lvl=25
R995_124 2443 3052 0.121139 $l=0.1045 $w=0.079 $lvl=25
R995_125 2443 2629 0.19701 $l=0.202 $w=0.079 $lvl=25
R995_126 2645 2700 0.252532 $l=0.1995 $w=0.079 $lvl=25
R995_127 2700 2981 0.0658228 $l=0.052 $w=0.079 $lvl=25
R995_128 3052 2346 0.056962 $l=0.045 $w=0.079 $lvl=25
R995_129 3052 F5263 150 $a=0.001764 $lvl=37
R995_130 2629 2229 0.0936364 $l=0.101 $w=0.099 $lvl=25
R995_131 2629 F5427 150 $a=0.001764 $lvl=37
R995_132 2229 2284 0.368987 $l=0.3015 $w=0.079 $lvl=25
R995_133 2284 F5419 150 $a=0.001764 $lvl=37
R995_134 2284 1867 0.113924 $l=0.09 $w=0.079 $lvl=25
R995_135 F5427 F5423 0.001 $l=0.122 $w=10 $lvl=5

*|NET ln_X1<3> 0.000113992PF
*|P (ln_X1<3> B 0 0.38 12.428) // $llx=0.38 $lly=12.428 $urx=0.38 $ury=12.428 $lvl=48
*|I (F2707 ld_M393 DRN B 0 0.441 12.52) // $llx=0.441 $lly=12.52 $urx=0.441 $ury=12.52 $lvl=4
*|S (1460 0.3865 12.486) // $llx=0.31 $lly=12.486 $urx=0.463 $ury=12.486 $lvl=25
*|S (1127 0.3865 12.38) // $llx=0.31 $lly=12.359 $urx=0.463 $ury=12.401 $lvl=25
*|S (1042 0.3865 12.328) // $llx=0.31 $lly=12.31 $urx=0.463 $ury=12.346 $lvl=25
*|S (F16 0.38 12.428) // $llx=0.38 $lly=12.428 $urx=0.38 $ury=12.428 $lvl=48
Rxln_X1<3> ln_X1<3> F16 0.001
Cg17_69 1042 gnd! 6.20838e-17
Cg17_70 F2707 gnd! 5.19083e-17
R17_136 1460 F16 0.0379085 $l=0.058 $w=0.153 $lvl=25
R17_137 F16 1127 0.0313726 $l=0.048 $w=0.153 $lvl=25
R17_138 1127 1042 0.0339869 $l=0.052 $w=0.153 $lvl=25
R17_139 1127 F2707 150 $a=0.001764 $lvl=37

*|NET ln_N295 0.000399701PF
*|I (F5411 ld_M1069 DRN B 0 1.505 13.3415) // $llx=1.505 $lly=13.3415 $urx=1.505 $ury=13.3415 $lvl=5
*|I (F5407 ld_M1068 DRN B 0 1.383 13.3415) // $llx=1.383 $lly=13.3415 $urx=1.383 $ury=13.3415 $lvl=5
*|I (F5243 ld_M1027 DRN B 0 1.809 13.278) // $llx=1.809 $lly=13.278 $urx=1.809 $ury=13.278 $lvl=5
*|I (F5403 ld_M1067 DRN B 0 1.079 13.278) // $llx=1.079 $lly=13.278 $urx=1.079 $ury=13.278 $lvl=5
*|I (F2635 ld_M375 DRN B 0 1.505 12.467) // $llx=1.505 $lly=12.467 $urx=1.505 $ury=12.467 $lvl=4
*|I (F2631 ld_M374 DRN B 0 1.383 12.467) // $llx=1.383 $lly=12.467 $urx=1.383 $ury=12.467 $lvl=4
*|S (2982 1.6435 12.5635) // $llx=1.617 $lly=12.524 $urx=1.67 $ury=12.603 $lvl=25
*|S (2662 1.6435 13.2105) // $llx=1.617 $lly=13.171 $urx=1.67 $ury=13.25 $lvl=25
*|S (2704 1.4415 13.2105) // $llx=1.392 $lly=13.171 $urx=1.491 $ury=13.25 $lvl=25
*|S (3054 1.748 13.2105) // $llx=1.727 $lly=13.171 $urx=1.769 $ury=13.25 $lvl=25
*|S (2630 1.4415 13.1095) // $llx=1.392 $lly=13.07 $urx=1.491 $ury=13.149 $lvl=25
*|S (1934 1.793 13.2105) // $llx=1.793 $lly=13.171 $urx=1.793 $ury=13.25 $lvl=25
*|S (2286 1.14 13.1095) // $llx=1.119 $lly=13.07 $urx=1.161 $ury=13.149 $lvl=25
*|S (2702 1.444 12.5635) // $llx=1.423 $lly=12.524 $urx=1.465 $ury=12.603 $lvl=25
*|S (1974 1.05 13.1095) // $llx=1.05 $lly=13.07 $urx=1.05 $ury=13.149 $lvl=25
*|S (2350 1.392 12.5635) // $llx=1.392 $lly=12.524 $urx=1.392 $ury=12.603 $lvl=25
Cg996_71 F5411 gnd! 1.93141e-17
Cg996_72 2982 gnd! 1.18845e-16
Cg996_73 2662 gnd! 5.20529e-17
Cg996_74 F5243 gnd! 6.16861e-17
Cg996_75 2630 gnd! 6.37061e-17
Cg996_76 F5403 gnd! 6.39606e-17
Cg996_77 F2635 gnd! 2.01364e-17
R996_140 F5411 F5407 0.001 $l=0.122 $w=10 $lvl=5
R996_141 F5411 2704 150 $a=0.001764 $lvl=37
R996_142 2982 2662 1.1717 $l=0.647 $w=0.053 $lvl=25
R996_143 2982 2702 0.241392 $l=0.1995 $w=0.079 $lvl=25
R996_144 2662 2704 0.243038 $l=0.202 $w=0.079 $lvl=25
R996_145 2662 3054 0.132278 $l=0.1045 $w=0.079 $lvl=25
R996_146 2704 2630 0.0805051 $l=0.101 $w=0.099 $lvl=25
R996_147 3054 F5243 150 $a=0.001764 $lvl=37
R996_148 3054 1934 0.056962 $l=0.045 $w=0.079 $lvl=25
R996_149 2630 2286 0.334098 $l=0.3015 $w=0.079 $lvl=25
R996_150 2286 F5403 150 $a=0.001764 $lvl=37
R996_151 2286 1974 0.113924 $l=0.09 $w=0.079 $lvl=25
R996_152 2702 2350 0.0658228 $l=0.052 $w=0.079 $lvl=25
R996_153 2702 F2635 150 $a=0.001764 $lvl=37
R996_154 F2635 F2631 0.001 $l=0.122 $w=10 $lvl=4

*|NET ln_N301 0.000412945PF
*|I (F2623 ld_M372 DRN B 0 1.505 14.893) // $llx=1.505 $lly=14.893 $urx=1.505 $ury=14.893 $lvl=4
*|I (F2619 ld_M371 DRN B 0 1.383 14.893) // $llx=1.383 $lly=14.893 $urx=1.383 $ury=14.893 $lvl=4
*|I (F5239 ld_M1026 DRN B 0 1.809 14.082) // $llx=1.809 $lly=14.082 $urx=1.809 $ury=14.082 $lvl=5
*|I (F5387 ld_M1063 DRN B 0 1.079 14.082) // $llx=1.079 $lly=14.082 $urx=1.079 $ury=14.082 $lvl=5
*|I (F5395 ld_M1065 DRN B 0 1.505 14.0185) // $llx=1.505 $lly=14.0185 $urx=1.505 $ury=14.0185 $lvl=5
*|I (F5391 ld_M1064 DRN B 0 1.383 14.0185) // $llx=1.383 $lly=14.0185 $urx=1.383 $ury=14.0185 $lvl=5
*|S (2451 1.6435 14.1495) // $llx=1.617 $lly=14.11 $urx=1.67 $ury=14.189 $lvl=25
*|S (2647 1.6435 14.7965) // $llx=1.617 $lly=14.757 $urx=1.67 $ury=14.836 $lvl=25
*|S (2708 1.444 14.7965) // $llx=1.423 $lly=14.757 $urx=1.465 $ury=14.836 $lvl=25
*|S (2983 1.392 14.7965) // $llx=1.392 $lly=14.757 $urx=1.392 $ury=14.836 $lvl=25
*|S (3056 1.748 14.1495) // $llx=1.727 $lly=14.11 $urx=1.769 $ury=14.189 $lvl=25
*|S (2631 1.4415 14.1495) // $llx=1.392 $lly=14.11 $urx=1.491 $ury=14.189 $lvl=25
*|S (2354 1.793 14.1495) // $llx=1.793 $lly=14.11 $urx=1.793 $ury=14.189 $lvl=25
*|S (2231 1.4415 14.2505) // $llx=1.392 $lly=14.211 $urx=1.491 $ury=14.29 $lvl=25
*|S (2288 1.14 14.2505) // $llx=1.119 $lly=14.211 $urx=1.161 $ury=14.29 $lvl=25
*|S (1875 1.05 14.2505) // $llx=1.05 $lly=14.211 $urx=1.05 $ury=14.29 $lvl=25
Cg1002_78 F2623 gnd! 2.25506e-17
Cg1002_79 2451 gnd! 6.12217e-17
Cg1002_80 2647 gnd! 6.11928e-17
Cg1002_81 2631 gnd! 5.42004e-17
Cg1002_82 2231 gnd! 6.88398e-17
Cg1002_83 F5239 gnd! 6.20517e-17
Cg1002_84 F5387 gnd! 5.88385e-17
Cg1002_85 F5395 gnd! 2.40495e-17
R1002_155 F2623 F2619 0.001 $l=0.122 $w=10 $lvl=4
R1002_156 F2623 2708 150 $a=0.001764 $lvl=37
R1002_157 2451 2647 1.1717 $l=0.647 $w=0.053 $lvl=25
R1002_158 2451 3056 0.121139 $l=0.1045 $w=0.079 $lvl=25
R1002_159 2451 2631 0.19701 $l=0.202 $w=0.079 $lvl=25
R1002_160 2647 2708 0.252532 $l=0.1995 $w=0.079 $lvl=25
R1002_161 2708 2983 0.0658228 $l=0.052 $w=0.079 $lvl=25
R1002_162 3056 2354 0.056962 $l=0.045 $w=0.079 $lvl=25
R1002_163 3056 F5239 150 $a=0.001764 $lvl=37
R1002_164 2631 2231 0.0936364 $l=0.101 $w=0.099 $lvl=25
R1002_165 2631 F5395 150 $a=0.001764 $lvl=37
R1002_166 2231 2288 0.368987 $l=0.3015 $w=0.079 $lvl=25
R1002_167 2288 F5387 150 $a=0.001764 $lvl=37
R1002_168 2288 1875 0.113924 $l=0.09 $w=0.079 $lvl=25
R1002_169 F5395 F5391 0.001 $l=0.122 $w=10 $lvl=5

*|NET ln_X1<1> 0.000112785PF
*|P (ln_X1<1> B 0 0.38 15.463) // $llx=0.38 $lly=15.463 $urx=0.38 $ury=15.463 $lvl=48
*|I (F2691 ld_M389 DRN B 0 0.441 15.56) // $llx=0.441 $lly=15.56 $urx=0.441 $ury=15.56 $lvl=4
*|S (1464 0.3865 15.521) // $llx=0.31 $lly=15.521 $urx=0.463 $ury=15.521 $lvl=25
*|S (1131 0.3865 15.42) // $llx=0.31 $lly=15.399 $urx=0.463 $ury=15.441 $lvl=25
*|S (1044 0.3865 15.3655) // $llx=0.31 $lly=15.35 $urx=0.463 $ury=15.381 $lvl=25
*|S (F14 0.38 15.463) // $llx=0.38 $lly=15.463 $urx=0.38 $ury=15.463 $lvl=48
Rxln_X1<1> ln_X1<1> F14 0.001
Cg19_86 1044 gnd! 5.90037e-17
Cg19_87 F2691 gnd! 5.37817e-17