* XREF SPICE	Wed Apr 27 00:44:20 2022	if_neuron_shortRun
* icv_netlist Version RHEL64 O-2018.06-SP1.4289877 2018/07/23

* Top of hierarchy  cell=if_neuron_shortRun
.subckt if_neuron_shortRun ln_CLK ln_W3 ln_W2 ln_gnd! ln_W1 ln_W0 ln_vdd! ln_F ln_X3<3> ln_X3<2> ln_X3<1>
+	ln_X3<0> ln_X2<3> ln_X2<2> ln_X2<1> ln_X2<0> ln_X1<3> ln_X1<2> ln_X1<1> ln_X1<0> ln_X0<3> ln_X0<2>
+	ln_X0<1> ln_X0<0>
M_ld_M1 ln_N348 ln_N223 ln_N235 ln_gnd! n105  l=3e-08 w=4.89e-07 nf=1 m=1 ad=2.9829e-14 as=4.9878e-14
+	 ps=1.182e-06 pd=6.11e-07 SCC=0.0106338 SCA=161.491 SCB=0.0377221 nrd=0.124744
+	 nrs=0.208589
M_ld_M2 ln_N348 ln_N223 ln_N235 ln_gnd! n105  l=3e-08 w=4.89e-07 nf=1 m=1 ad=2.9829e-14 as=4.9389e-14
+	 ps=1.18e-06 pd=6.11e-07 SCC=0.0106339 SCA=161.714 SCB=0.0378462 nrd=0.124744
+	 nrs=0.206544
M_ld_M3 ln_N352 ln_N235 ln_gnd! ln_gnd! n105  l=3e-08 w=3.38e-07 nf=1 m=1 ad=2.0618e-14 as=3.4476e-14
+	 ps=8.8e-07 pd=4.6e-07 SCC=0.00764133 SCA=58.2584 SCB=0.0397019 nrd=0.180473
+	 nrs=0.301775
M_ld_M4 ln_N352 ln_N235 ln_gnd! ln_gnd! n105  l=3e-08 w=3.38e-07 nf=1 m=1 ad=2.0618e-14 as=2.0618e-14
+	 ps=4.6e-07 pd=4.6e-07 SCC=0.00764361 SCA=58.7351 SCB=0.0402749 nrd=0.180473
+	 nrs=0.180473
M_ld_M5 ln_N352 ln_N235 ln_gnd! ln_gnd! n105  l=3e-08 w=3.38e-07 nf=1 m=1 ad=3.4476e-14 as=2.0618e-14
+	 ps=4.6e-07 pd=8.8e-07 SCC=0.00765049 SCA=59.3805 SCB=0.041207 nrd=0.301775
+	 nrs=0.180473
M_ld_M6 ln_N346 ln_gnd! ln_N234 ln_gnd! n105  l=3e-08 w=4.89e-07 nf=1 m=1 ad=2.9829e-14 as=4.9878e-14
+	 ps=1.182e-06 pd=6.11e-07 SCC=0.0106338 SCA=161.491 SCB=0.0377221 nrd=0.124744
+	 nrs=0.208589
M_ld_M7 ln_N346 ln_gnd! ln_N234 ln_gnd! n105  l=3e-08 w=4.89e-07 nf=1 m=1 ad=2.9829e-14 as=4.9389e-14
+	 ps=1.18e-06 pd=6.11e-07 SCC=0.0106339 SCA=161.714 SCB=0.0378462 nrd=0.124744
+	 nrs=0.206544
M_ld_M8 ln_N351 ln_N234 ln_gnd! ln_gnd! n105  l=3e-08 w=3.38e-07 nf=1 m=1 ad=2.0618e-14 as=3.4476e-14
+	 ps=8.8e-07 pd=4.6e-07 SCC=0.00764133 SCA=58.2584 SCB=0.0397019 nrd=0.180473
+	 nrs=0.301775
M_ld_M9 ln_N351 ln_N234 ln_gnd! ln_gnd! n105  l=3e-08 w=3.38e-07 nf=1 m=1 ad=2.0618e-14 as=2.0618e-14
+	 ps=4.6e-07 pd=4.6e-07 SCC=0.00764361 SCA=58.7351 SCB=0.0402749 nrd=0.180473
+	 nrs=0.180473
M_ld_M10 ln_N351 ln_N234 ln_gnd! ln_gnd! n105  l=3e-08 w=3.38e-07 nf=1 m=1 ad=3.4476e-14 as=2.0618e-14
+	 ps=4.6e-07 pd=8.8e-07 SCC=0.00765049 SCA=59.3805 SCB=0.041207 nrd=0.301775
+	 nrs=0.180473
M_ld_M11 ln_N344 ln_N220 ln_N233 ln_gnd! n105  l=3e-08 w=4.89e-07 nf=1 m=1 ad=2.9829e-14 as=4.9878e-14
+	 ps=1.182e-06 pd=6.11e-07 SCC=0.0106345 SCA=161.501 SCB=0.0377395 nrd=0.124744
+	 nrs=0.208589
M_ld_M12 ln_N344 ln_N220 ln_N233 ln_gnd! n105  l=3e-08 w=4.89e-07 nf=1 m=1 ad=2.9829e-14 as=4.9389e-14
+	 ps=1.18e-06 pd=6.11e-07 SCC=0.0106346 SCA=161.724 SCB=0.0378637 nrd=0.124744
+	 nrs=0.206544
M_ld_M13 ln_N350 ln_N233 ln_gnd! ln_gnd! n105  l=3e-08 w=3.38e-07 nf=1 m=1 ad=2.0618e-14 as=3.4476e-14
+	 ps=8.8e-07 pd=4.6e-07 SCC=0.00764227 SCA=58.2704 SCB=0.0397227 nrd=0.180473
+	 nrs=0.301775
M_ld_M14 ln_N350 ln_N233 ln_gnd! ln_gnd! n105  l=3e-08 w=3.38e-07 nf=1 m=1 ad=2.0618e-14 as=2.0618e-14
+	 ps=4.6e-07 pd=4.6e-07 SCC=0.00764455 SCA=58.7472 SCB=0.0402957 nrd=0.180473
+	 nrs=0.180473
M_ld_M15 ln_N350 ln_N233 ln_gnd! ln_gnd! n105  l=3e-08 w=3.38e-07 nf=1 m=1 ad=3.4476e-14 as=2.0618e-14
+	 ps=4.6e-07 pd=8.8e-07 SCC=0.00765143 SCA=59.3926 SCB=0.0412278 nrd=0.301775
+	 nrs=0.180473
M_ld_M16 ln_N313 ln_N218 ln_N232 ln_gnd! n105  l=3e-08 w=4.89e-07 nf=1 m=1 ad=2.9829e-14 as=4.9878e-14
+	 ps=1.182e-06 pd=6.11e-07 SCC=0.0106345 SCA=161.501 SCB=0.0377395 nrd=0.124744
+	 nrs=0.208589
M_ld_M17 ln_N313 ln_N218 ln_N232 ln_gnd! n105  l=3e-08 w=4.89e-07 nf=1 m=1 ad=2.9829e-14 as=4.9389e-14
+	 ps=1.18e-06 pd=6.11e-07 SCC=0.0106346 SCA=161.724 SCB=0.0378637 nrd=0.124744
+	 nrs=0.206544
M_ld_M18 ln_N315 ln_N232 ln_gnd! ln_gnd! n105  l=3e-08 w=3.38e-07 nf=1 m=1 ad=2.0618e-14 as=3.4476e-14
+	 ps=8.8e-07 pd=4.6e-07 SCC=0.00764227 SCA=58.2704 SCB=0.0397227 nrd=0.180473
+	 nrs=0.301775
M_ld_M19 ln_N315 ln_N232 ln_gnd! ln_gnd! n105  l=3e-08 w=3.38e-07 nf=1 m=1 ad=2.0618e-14 as=2.0618e-14
+	 ps=4.6e-07 pd=4.6e-07 SCC=0.00764455 SCA=58.7472 SCB=0.0402957 nrd=0.180473
+	 nrs=0.180473
M_ld_M20 ln_N315 ln_N232 ln_gnd! ln_gnd! n105  l=3e-08 w=3.38e-07 nf=1 m=1 ad=3.4476e-14 as=2.0618e-14
+	 ps=4.6e-07 pd=8.8e-07 SCC=0.00765143 SCA=59.3926 SCB=0.0412278 nrd=0.301775
+	 nrs=0.180473
M_ld_M21 ln_N215 ln_CLK ln_gnd! ln_gnd! n105  l=3e-08 w=4.2e-07 nf=1 m=1 ad=4.284e-14 as=4.284e-14
+	 ps=1.044e-06 pd=1.044e-06 SCC=0.00933237 SCA=82.2242 SCB=0.0332183 nrd=0.242857
+	 nrs=0.242857
M_ld_M22 ln_N343 ln_N230 ln_N235 ln_gnd! n105  l=3e-08 w=3.27e-07 nf=1 m=1 ad=3.3354e-14 as=1.9947e-14
+	 ps=4.49e-07 pd=8.58e-07 SCC=0.00740192 SCA=53.7084 SCB=0.0387844 nrd=0.311927
+	 nrs=0.186544
M_ld_M23 ln_N349 ln_N213 ln_N348 ln_gnd! n105  l=3e-08 w=4.89e-07 nf=1 m=1 ad=2.9829e-14 as=2.9829e-14
+	 ps=6.11e-07 pd=6.11e-07 SCC=0.0106338 SCA=160.1 SCB=0.0375459 nrd=0.124744
+	 nrs=0.124744
M_ld_M24 ln_N349 ln_N213 ln_N348 ln_gnd! n105  l=3e-08 w=4.89e-07 nf=1 m=1 ad=4.8411e-14 as=2.9829e-14
+	 ps=6.11e-07 pd=1.176e-06 SCC=0.0106338 SCA=161.164 SCB=0.0376056 nrd=0.202454
+	 nrs=0.124744
M_ld_M25 ln_N349 ln_N224 ln_gnd! ln_gnd! n105  l=3e-08 w=4.89e-07 nf=1 m=1 ad=4.9878e-14 as=2.9829e-14
+	 ps=6.11e-07 pd=1.182e-06 SCC=0.0106338 SCA=160.1 SCB=0.0375459 nrd=0.208589
+	 nrs=0.124744
M_ld_M26 ln_N349 ln_N224 ln_gnd! ln_gnd! n105  l=3e-08 w=4.89e-07 nf=1 m=1 ad=2.9829e-14 as=2.9829e-14
+	 ps=6.11e-07 pd=6.11e-07 SCC=0.0106338 SCA=160.1 SCB=0.0375459 nrd=0.124744
+	 nrs=0.124744
M_ld_M27 ln_N342 ln_N229 ln_N234 ln_gnd! n105  l=3e-08 w=3.27e-07 nf=1 m=1 ad=3.3354e-14 as=1.9947e-14
+	 ps=4.49e-07 pd=8.58e-07 SCC=0.00740192 SCA=53.7084 SCB=0.0387844 nrd=0.311927
+	 nrs=0.186544
M_ld_M28 ln_N347 ln_N212 ln_N346 ln_gnd! n105  l=3e-08 w=4.89e-07 nf=1 m=1 ad=2.9829e-14 as=2.9829e-14
+	 ps=6.11e-07 pd=6.11e-07 SCC=0.0106338 SCA=160.1 SCB=0.0375459 nrd=0.124744
+	 nrs=0.124744
M_ld_M29 ln_N347 ln_N212 ln_N346 ln_gnd! n105  l=3e-08 w=4.89e-07 nf=1 m=1 ad=4.8411e-14 as=2.9829e-14
+	 ps=6.11e-07 pd=1.176e-06 SCC=0.0106338 SCA=161.164 SCB=0.0376056 nrd=0.202454
+	 nrs=0.124744
M_ld_M30 ln_N347 ln_N222 ln_gnd! ln_gnd! n105  l=3e-08 w=4.89e-07 nf=1 m=1 ad=4.9878e-14 as=2.9829e-14
+	 ps=6.11e-07 pd=1.182e-06 SCC=0.0106338 SCA=160.1 SCB=0.0375459 nrd=0.208589
+	 nrs=0.124744
M_ld_M31 ln_N347 ln_N222 ln_gnd! ln_gnd! n105  l=3e-08 w=4.89e-07 nf=1 m=1 ad=2.9829e-14 as=2.9829e-14
+	 ps=6.11e-07 pd=6.11e-07 SCC=0.0106338 SCA=160.1 SCB=0.0375459 nrd=0.124744
+	 nrs=0.124744
M_ld_M32 ln_N341 ln_N228 ln_N233 ln_gnd! n105  l=3e-08 w=3.27e-07 nf=1 m=1 ad=3.3354e-14 as=1.9947e-14
+	 ps=4.49e-07 pd=8.58e-07 SCC=0.00740288 SCA=53.7206 SCB=0.0388055 nrd=0.311927
+	 nrs=0.186544
M_ld_M33 ln_N345 ln_N211 ln_N344 ln_gnd! n105  l=3e-08 w=4.89e-07 nf=1 m=1 ad=2.9829e-14 as=2.9829e-14
+	 ps=6.11e-07 pd=6.11e-07 SCC=0.0106344 SCA=160.111 SCB=0.0375634 nrd=0.124744
+	 nrs=0.124744
M_ld_M34 ln_N345 ln_N211 ln_N344 ln_gnd! n105  l=3e-08 w=4.89e-07 nf=1 m=1 ad=4.8411e-14 as=2.9829e-14
+	 ps=6.11e-07 pd=1.176e-06 SCC=0.0106344 SCA=161.174 SCB=0.0376231 nrd=0.202454
+	 nrs=0.124744
M_ld_M35 ln_N345 ln_N221 ln_gnd! ln_gnd! n105  l=3e-08 w=4.89e-07 nf=1 m=1 ad=4.9878e-14 as=2.9829e-14
+	 ps=6.11e-07 pd=1.182e-06 SCC=0.0106344 SCA=160.111 SCB=0.0375634 nrd=0.208589
+	 nrs=0.124744
M_ld_M36 ln_N345 ln_N221 ln_gnd! ln_gnd! n105  l=3e-08 w=4.89e-07 nf=1 m=1 ad=2.9829e-14 as=2.9829e-14
+	 ps=6.11e-07 pd=6.11e-07 SCC=0.0106344 SCA=160.111 SCB=0.0375634 nrd=0.124744
+	 nrs=0.124744
M_ld_M37 ln_N312 ln_N227 ln_N232 ln_gnd! n105  l=3e-08 w=3.27e-07 nf=1 m=1 ad=3.3354e-14 as=1.9947e-14
+	 ps=4.49e-07 pd=8.58e-07 SCC=0.00740288 SCA=53.7206 SCB=0.0388055 nrd=0.311927
+	 nrs=0.186544
M_ld_M38 ln_N314 ln_N210 ln_N313 ln_gnd! n105  l=3e-08 w=4.89e-07 nf=1 m=1 ad=2.9829e-14 as=2.9829e-14
+	 ps=6.11e-07 pd=6.11e-07 SCC=0.0106344 SCA=160.111 SCB=0.0375634 nrd=0.124744
+	 nrs=0.124744
M_ld_M39 ln_N314 ln_N210 ln_N313 ln_gnd! n105  l=3e-08 w=4.89e-07 nf=1 m=1 ad=4.8411e-14 as=2.9829e-14
+	 ps=6.11e-07 pd=1.176e-06 SCC=0.0106344 SCA=161.174 SCB=0.0376231 nrd=0.202454
+	 nrs=0.124744
M_ld_M40 ln_N314 ln_N219 ln_gnd! ln_gnd! n105  l=3e-08 w=4.89e-07 nf=1 m=1 ad=4.9878e-14 as=2.9829e-14
+	 ps=6.11e-07 pd=1.182e-06 SCC=0.0106344 SCA=160.111 SCB=0.0375634 nrd=0.208589
+	 nrs=0.124744
M_ld_M41 ln_N314 ln_N219 ln_gnd! ln_gnd! n105  l=3e-08 w=4.89e-07 nf=1 m=1 ad=2.9829e-14 as=2.9829e-14
+	 ps=6.11e-07 pd=6.11e-07 SCC=0.0106344 SCA=160.111 SCB=0.0375634 nrd=0.124744
+	 nrs=0.124744
M_ld_M42 ln_N300 ln_N215 ln_N231 ln_gnd! n105  l=3e-08 w=4.2e-07 nf=1 m=1 ad=4.284e-14 as=4.284e-14
+	 ps=1.044e-06 pd=1.044e-06 SCC=0.00933236 SCA=81.0134 SCB=0.0331156 nrd=0.242857
+	 nrs=0.242857
M_ld_M43 ln_N226 ln_N231 ln_gnd! ln_gnd! n105  l=3e-08 w=4.2e-07 nf=1 m=1 ad=4.284e-14 as=4.284e-14
+	 ps=1.044e-06 pd=1.044e-06 SCC=0.00933236 SCA=81.0134 SCB=0.0331156 nrd=0.242857
+	 nrs=0.242857
M_ld_M44 ln_N220 ln_N230 ln_gnd! ln_gnd! n105  l=3e-08 w=4.2e-07 nf=1 m=1 ad=4.242e-14 as=4.242e-14
+	 ps=1.042e-06 pd=1.042e-06 SCC=0.00944468 SCA=84.6686 SCB=0.0387494 nrd=0.240476
+	 nrs=0.240476
M_ld_M45 ln_N343 ln_N213 ln_gnd! ln_gnd! n105  l=3e-08 w=2.18e-07 nf=1 m=1 ad=2.18e-14 as=1.3298e-14
+	 ps=3.4e-07 pd=6.36e-07 SCC=0.00531446 SCA=39.194 SCB=0.0376487 nrd=0.458716
+	 nrs=0.279817
M_ld_M46 ln_N343 ln_N224 ln_gnd! ln_gnd! n105  l=3e-08 w=2.18e-07 nf=1 m=1 ad=1.3298e-14 as=1.3298e-14
+	 ps=3.4e-07 pd=3.4e-07 SCC=0.00531446 SCA=39.194 SCB=0.0376487 nrd=0.279817
+	 nrs=0.279817
M_ld_M47 ln_N343 ln_N223 ln_gnd! ln_gnd! n105  l=3e-08 w=2.18e-07 nf=1 m=1 ad=1.3298e-14 as=2.2236e-14
+	 ps=6.4e-07 pd=3.4e-07 SCC=0.00531446 SCA=39.194 SCB=0.0376487 nrd=0.279817
+	 nrs=0.46789
M_ld_M48 ln_N343 ln_N230 ln_N235 ln_gnd! n105  l=3e-08 w=3.27e-07 nf=1 m=1 ad=3.3354e-14 as=1.9947e-14
+	 ps=4.49e-07 pd=8.58e-07 SCC=0.00740192 SCA=53.7084 SCB=0.0387844 nrd=0.311927
+	 nrs=0.186544
M_ld_M49 ln_N223 ln_N229 ln_gnd! ln_gnd! n105  l=3e-08 w=4.2e-07 nf=1 m=1 ad=4.242e-14 as=4.242e-14
+	 ps=1.042e-06 pd=1.042e-06 SCC=0.00944468 SCA=84.6686 SCB=0.0387494 nrd=0.240476
+	 nrs=0.240476
M_ld_M50 ln_N342 ln_N212 ln_gnd! ln_gnd! n105  l=3e-08 w=2.18e-07 nf=1 m=1 ad=2.18e-14 as=1.3298e-14
+	 ps=3.4e-07 pd=6.36e-07 SCC=0.00531446 SCA=39.194 SCB=0.0376487 nrd=0.458716
+	 nrs=0.279817
M_ld_M51 ln_N342 ln_N222 ln_gnd! ln_gnd! n105  l=3e-08 w=2.18e-07 nf=1 m=1 ad=1.3298e-14 as=1.3298e-14
+	 ps=3.4e-07 pd=3.4e-07 SCC=0.00531446 SCA=39.194 SCB=0.0376487 nrd=0.279817
+	 nrs=0.279817
M_ld_M52 ln_N342 ln_gnd! ln_gnd! ln_gnd! n105  l=3e-08 w=2.18e-07 nf=1 m=1 ad=1.3298e-14 as=2.2236e-14
+	 ps=6.4e-07 pd=3.4e-07 SCC=0.00531446 SCA=39.194 SCB=0.0376487 nrd=0.279817
+	 nrs=0.46789
M_ld_M53 ln_N342 ln_N229 ln_N234 ln_gnd! n105  l=3e-08 w=3.27e-07 nf=1 m=1 ad=3.3354e-14 as=1.9947e-14
+	 ps=4.49e-07 pd=8.58e-07 SCC=0.00740192 SCA=53.7084 SCB=0.0387844 nrd=0.311927
+	 nrs=0.186544
M_ld_M54 ln_N218 ln_N228 ln_gnd! ln_gnd! n105  l=3e-08 w=4.2e-07 nf=1 m=1 ad=4.242e-14 as=4.242e-14
+	 ps=1.042e-06 pd=1.042e-06 SCC=0.00944547 SCA=84.6796 SCB=0.0387683 nrd=0.240476
+	 nrs=0.240476
M_ld_M55 ln_N341 ln_N211 ln_gnd! ln_gnd! n105  l=3e-08 w=2.18e-07 nf=1 m=1 ad=2.18e-14 as=1.3298e-14
+	 ps=3.4e-07 pd=6.36e-07 SCC=0.00531571 SCA=39.2081 SCB=0.0376727 nrd=0.458716
+	 nrs=0.279817
M_ld_M56 ln_N341 ln_N221 ln_gnd! ln_gnd! n105  l=3e-08 w=2.18e-07 nf=1 m=1 ad=1.3298e-14 as=1.3298e-14
+	 ps=3.4e-07 pd=3.4e-07 SCC=0.00531571 SCA=39.2081 SCB=0.0376727 nrd=0.279817
+	 nrs=0.279817
M_ld_M57 ln_N341 ln_N220 ln_gnd! ln_gnd! n105  l=3e-08 w=2.18e-07 nf=1 m=1 ad=1.3298e-14 as=2.2236e-14
+	 ps=6.4e-07 pd=3.4e-07 SCC=0.00531571 SCA=39.2081 SCB=0.0376727 nrd=0.279817
+	 nrs=0.46789
M_ld_M58 ln_N341 ln_N228 ln_N233 ln_gnd! n105  l=3e-08 w=3.27e-07 nf=1 m=1 ad=3.3354e-14 as=1.9947e-14
+	 ps=4.49e-07 pd=8.58e-07 SCC=0.00740288 SCA=53.7206 SCB=0.0388055 nrd=0.311927
+	 nrs=0.186544
M_ld_M59 ln_N216 ln_N227 ln_gnd! ln_gnd! n105  l=3e-08 w=4.2e-07 nf=1 m=1 ad=4.242e-14 as=4.242e-14
+	 ps=1.042e-06 pd=1.042e-06 SCC=0.00944547 SCA=84.6796 SCB=0.0387683 nrd=0.240476
+	 nrs=0.240476
M_ld_M60 ln_N312 ln_N210 ln_gnd! ln_gnd! n105  l=3e-08 w=2.18e-07 nf=1 m=1 ad=2.18e-14 as=1.3298e-14
+	 ps=3.4e-07 pd=6.36e-07 SCC=0.00531571 SCA=39.2081 SCB=0.0376727 nrd=0.458716
+	 nrs=0.279817
M_ld_M61 ln_N312 ln_N219 ln_gnd! ln_gnd! n105  l=3e-08 w=2.18e-07 nf=1 m=1 ad=1.3298e-14 as=1.3298e-14
+	 ps=3.4e-07 pd=3.4e-07 SCC=0.00531571 SCA=39.2081 SCB=0.0376727 nrd=0.279817
+	 nrs=0.279817
M_ld_M62 ln_N312 ln_N218 ln_gnd! ln_gnd! n105  l=3e-08 w=2.18e-07 nf=1 m=1 ad=1.3298e-14 as=2.2236e-14
+	 ps=6.4e-07 pd=3.4e-07 SCC=0.00531571 SCA=39.2081 SCB=0.0376727 nrd=0.279817
+	 nrs=0.46789
M_ld_M63 ln_N312 ln_N227 ln_N232 ln_gnd! n105  l=3e-08 w=3.27e-07 nf=1 m=1 ad=3.3354e-14 as=1.9947e-14
+	 ps=4.49e-07 pd=8.58e-07 SCC=0.00740288 SCA=53.7206 SCB=0.0388055 nrd=0.311927
+	 nrs=0.186544
M_ld_M64 ln_N299 ln_N226 ln_gnd! ln_gnd! n105  l=3e-08 w=3.14e-07 nf=1 m=1 ad=1.9154e-14 as=3.2028e-14
+	 ps=8.32e-07 pd=4.36e-07 SCC=0.00698411 SCA=47.2175 SCB=0.0322679 nrd=0.194268
+	 nrs=0.324841
M_ld_M65 ln_N299 ln_N226 ln_gnd! ln_gnd! n105  l=3e-08 w=3.14e-07 nf=1 m=1 ad=1.9154e-14 as=3.2028e-14
+	 ps=8.32e-07 pd=4.36e-07 SCC=0.00712627 SCA=51.2824 SCB=0.0387169 nrd=0.194268
+	 nrs=0.324841
M_ld_M66 ln_N209 ln_N217 ln_gnd! ln_gnd! n105  l=3e-08 w=4.7e-07 nf=1 m=1 ad=2.867e-14 as=4.794e-14
+	 ps=1.144e-06 pd=5.92e-07 SCC=0.0103786 SCA=127.88 SCB=0.0380302 nrd=0.129787
+	 nrs=0.217021
M_ld_M67 ln_N300 ln_N225 ln_gnd! ln_gnd! n105  l=3e-08 w=4.2e-07 nf=1 m=1 ad=4.284e-14 as=4.284e-14
+	 ps=1.044e-06 pd=1.044e-06 SCC=0.00944547 SCA=84.6796 SCB=0.0387683 nrd=0.242857
+	 nrs=0.242857
M_ld_M68 ln_N340 ln_N224 ln_gnd! ln_gnd! n105  l=3e-08 w=2.1e-07 nf=1 m=1 ad=2.079e-14 as=1.281e-14
+	 ps=3.32e-07 pd=6.18e-07 SCC=0.00518455 SCA=38.5038 SCB=0.0375417 nrd=0.471429
+	 nrs=0.290476
M_ld_M69 ln_N371 ln_N224 ln_gnd! ln_gnd! n105  l=3e-08 w=4.2e-07 nf=1 m=1 ad=2.562e-14 as=4.284e-14
+	 ps=1.044e-06 pd=5.42e-07 SCC=0.00944468 SCA=84.6686 SCB=0.0387494 nrd=0.145238
+	 nrs=0.242857
M_ld_M70 ln_N340 ln_N223 ln_N230 ln_gnd! n105  l=3e-08 w=4.2e-07 nf=1 m=1 ad=4.074e-14 as=2.562e-14
+	 ps=5.42e-07 pd=1.034e-06 SCC=0.00944468 SCA=84.6686 SCB=0.0387494 nrd=0.230952
+	 nrs=0.145238
M_ld_M71 ln_N371 ln_N213 ln_N230 ln_gnd! n105  l=3e-08 w=4.2e-07 nf=1 m=1 ad=2.562e-14 as=2.562e-14
+	 ps=5.42e-07 pd=5.42e-07 SCC=0.00944468 SCA=84.6686 SCB=0.0387494 nrd=0.145238
+	 nrs=0.145238
M_ld_M72 ln_N339 ln_N222 ln_gnd! ln_gnd! n105  l=3e-08 w=2.1e-07 nf=1 m=1 ad=2.079e-14 as=1.281e-14
+	 ps=3.32e-07 pd=6.18e-07 SCC=0.0051847 SCA=40.1766 SCB=0.037881 nrd=0.471429
+	 nrs=0.290476
M_ld_M73 ln_N370 ln_N222 ln_gnd! ln_gnd! n105  l=3e-08 w=4.2e-07 nf=1 m=1 ad=2.562e-14 as=4.284e-14
+	 ps=1.044e-06 pd=5.42e-07 SCC=0.00944468 SCA=84.6686 SCB=0.0387494 nrd=0.145238
+	 nrs=0.242857
M_ld_M74 ln_N339 ln_gnd! ln_N229 ln_gnd! n105  l=3e-08 w=4.2e-07 nf=1 m=1 ad=4.074e-14 as=2.562e-14
+	 ps=5.42e-07 pd=1.034e-06 SCC=0.0094447 SCA=85.9176 SCB=0.0388658 nrd=0.230952
+	 nrs=0.145238
M_ld_M75 ln_N370 ln_N212 ln_N229 ln_gnd! n105  l=3e-08 w=4.2e-07 nf=1 m=1 ad=2.562e-14 as=2.562e-14
+	 ps=5.42e-07 pd=5.42e-07 SCC=0.00944469 SCA=85.7637 SCB=0.0388171 nrd=0.145238
+	 nrs=0.145238
M_ld_M76 ln_N338 ln_N221 ln_gnd! ln_gnd! n105  l=3e-08 w=2.1e-07 nf=1 m=1 ad=2.079e-14 as=1.281e-14
+	 ps=3.32e-07 pd=6.18e-07 SCC=0.00518598 SCA=40.1908 SCB=0.0379052 nrd=0.471429
+	 nrs=0.290476
M_ld_M77 ln_N369 ln_N221 ln_gnd! ln_gnd! n105  l=3e-08 w=4.2e-07 nf=1 m=1 ad=2.562e-14 as=4.284e-14
+	 ps=1.044e-06 pd=5.42e-07 SCC=0.00944547 SCA=84.6796 SCB=0.0387683 nrd=0.145238
+	 nrs=0.242857
M_ld_M78 ln_N338 ln_N220 ln_N228 ln_gnd! n105  l=3e-08 w=4.2e-07 nf=1 m=1 ad=4.074e-14 as=2.562e-14
+	 ps=5.42e-07 pd=1.034e-06 SCC=0.00944549 SCA=85.9286 SCB=0.0388847 nrd=0.230952
+	 nrs=0.145238
M_ld_M79 ln_N369 ln_N211 ln_N228 ln_gnd! n105  l=3e-08 w=4.2e-07 nf=1 m=1 ad=2.562e-14 as=2.562e-14
+	 ps=5.42e-07 pd=5.42e-07 SCC=0.00944548 SCA=85.7747 SCB=0.038836 nrd=0.145238
+	 nrs=0.145238
M_ld_M80 ln_N311 ln_N219 ln_gnd! ln_gnd! n105  l=3e-08 w=2.1e-07 nf=1 m=1 ad=2.079e-14 as=1.281e-14
+	 ps=3.32e-07 pd=6.18e-07 SCC=0.00518583 SCA=38.518 SCB=0.0375659 nrd=0.471429
+	 nrs=0.290476
M_ld_M81 ln_N365 ln_N219 ln_gnd! ln_gnd! n105  l=3e-08 w=4.2e-07 nf=1 m=1 ad=2.562e-14 as=4.284e-14
+	 ps=1.044e-06 pd=5.42e-07 SCC=0.00944547 SCA=84.6796 SCB=0.0387683 nrd=0.145238
+	 nrs=0.242857
M_ld_M82 ln_N311 ln_N218 ln_N227 ln_gnd! n105  l=3e-08 w=4.2e-07 nf=1 m=1 ad=4.074e-14 as=2.562e-14
+	 ps=5.42e-07 pd=1.034e-06 SCC=0.00944547 SCA=84.6796 SCB=0.0387683 nrd=0.230952
+	 nrs=0.145238
M_ld_M83 ln_N365 ln_N210 ln_N227 ln_gnd! n105  l=3e-08 w=4.2e-07 nf=1 m=1 ad=2.562e-14 as=2.562e-14
+	 ps=5.42e-07 pd=5.42e-07 SCC=0.00944547 SCA=84.6796 SCB=0.0387683 nrd=0.145238
+	 nrs=0.145238
M_ld_M84 ln_N209 ln_N217 ln_gnd! ln_gnd! n105  l=3e-08 w=4.7e-07 nf=1 m=1 ad=2.867e-14 as=4.794e-14
+	 ps=1.144e-06 pd=5.92e-07 SCC=0.0103786 SCA=127.88 SCB=0.0380302 nrd=0.129787
+	 nrs=0.217021
M_ld_M85 ln_N225 ln_N216 ln_gnd! ln_gnd! n105  l=3e-08 w=1.4e-07 nf=1 m=1 ad=1.414e-14 as=1.428e-14
+	 ps=4.84e-07 pd=4.82e-07 SCC=0.00419018 SCA=33.7145 SCB=0.0365891 nrd=0.721429
+	 nrs=0.728571
M_ld_M86 ln_F ln_N215 ln_N217 ln_gnd! n105  l=3e-08 w=4.2e-07 nf=1 m=1 ad=4.284e-14 as=4.284e-14
+	 ps=1.044e-06 pd=1.044e-06 SCC=0.00944547 SCA=84.6796 SCB=0.0387683 nrd=0.242857
+	 nrs=0.242857
M_ld_M87 ln_F ln_N209 ln_gnd! ln_gnd! n105  l=3e-08 w=4.68e-07 nf=1 m=1 ad=4.7736e-14 as=2.8548e-14
+	 ps=5.9e-07 pd=1.14e-06 SCC=0.0103476 SCA=125.256 SCB=0.0380727 nrd=0.217949
+	 nrs=0.130342
M_ld_M88 ln_F ln_N209 ln_gnd! ln_gnd! n105  l=3e-08 w=4.68e-07 nf=1 m=1 ad=2.8548e-14 as=2.8548e-14
+	 ps=5.9e-07 pd=5.9e-07 SCC=0.0103476 SCA=125.256 SCB=0.0380727 nrd=0.130342
+	 nrs=0.130342
M_ld_M89 ln_N225 ln_N214 ln_gnd! ln_gnd! n105  l=3e-08 w=1.4e-07 nf=1 m=1 ad=1.428e-14 as=1.428e-14
+	 ps=4.84e-07 pd=4.84e-07 SCC=0.00419018 SCA=33.7145 SCB=0.0365891 nrd=0.728571
+	 nrs=0.728571
M_ld_M90 ln_N340 ln_N213 ln_gnd! ln_gnd! n105  l=3e-08 w=2.1e-07 nf=1 m=1 ad=2.079e-14 as=1.281e-14
+	 ps=3.32e-07 pd=6.18e-07 SCC=0.00518455 SCA=38.5038 SCB=0.0375417 nrd=0.471429
+	 nrs=0.290476
M_ld_M91 ln_N339 ln_N212 ln_gnd! ln_gnd! n105  l=3e-08 w=2.1e-07 nf=1 m=1 ad=2.079e-14 as=1.281e-14
+	 ps=3.32e-07 pd=6.18e-07 SCC=0.00518502 SCA=40.4744 SCB=0.0381158 nrd=0.471429
+	 nrs=0.290476
M_ld_M92 ln_N338 ln_N211 ln_gnd! ln_gnd! n105  l=3e-08 w=2.1e-07 nf=1 m=1 ad=2.079e-14 as=1.281e-14
+	 ps=3.32e-07 pd=6.18e-07 SCC=0.0051863 SCA=40.4885 SCB=0.03814 nrd=0.471429
+	 nrs=0.290476
M_ld_M93 ln_N311 ln_N210 ln_gnd! ln_gnd! n105  l=3e-08 w=2.1e-07 nf=1 m=1 ad=2.079e-14 as=1.281e-14
+	 ps=3.32e-07 pd=6.18e-07 SCC=0.00518583 SCA=38.518 SCB=0.0375659 nrd=0.471429
+	 nrs=0.290476
M_ld_M94 ln_F ln_N209 ln_gnd! ln_gnd! n105  l=3e-08 w=4.68e-07 nf=1 m=1 ad=2.8548e-14 as=4.7736e-14
+	 ps=1.14e-06 pd=5.9e-07 SCC=0.0103476 SCA=125.256 SCB=0.0380727 nrd=0.130342
+	 nrs=0.217949
M_ld_M95 ln_N225 ln_N208 ln_gnd! ln_gnd! n105  l=3e-08 w=1.4e-07 nf=1 m=1 ad=1.414e-14 as=1.428e-14
+	 ps=4.84e-07 pd=4.82e-07 SCC=0.00419018 SCA=33.7145 SCB=0.0365891 nrd=0.721429
+	 nrs=0.728571
M_ld_M96 ln_N212 ln_N207 ln_gnd! ln_gnd! n105  l=3e-08 w=4.68e-07 nf=1 m=1 ad=2.8548e-14 as=2.8548e-14
+	 ps=5.9e-07 pd=5.9e-07 SCC=0.0103476 SCA=125.256 SCB=0.0380727 nrd=0.130342
+	 nrs=0.130342
M_ld_M97 ln_N212 ln_N207 ln_gnd! ln_gnd! n105  l=3e-08 w=4.68e-07 nf=1 m=1 ad=2.8548e-14 as=4.7736e-14
+	 ps=1.14e-06 pd=5.9e-07 SCC=0.0103476 SCA=125.256 SCB=0.0380727 nrd=0.130342
+	 nrs=0.217949
M_ld_M98 ln_N212 ln_N207 ln_gnd! ln_gnd! n105  l=3e-08 w=4.68e-07 nf=1 m=1 ad=4.7736e-14 as=2.8548e-14
+	 ps=5.9e-07 pd=1.14e-06 SCC=0.0103476 SCA=125.256 SCB=0.0380727 nrd=0.217949
+	 nrs=0.130342
M_ld_M99 ln_N212 ln_N193 ln_N200 ln_gnd! n105  l=3e-08 w=4.2e-07 nf=1 m=1 ad=4.284e-14 as=4.284e-14
+	 ps=1.044e-06 pd=1.044e-06 SCC=0.00944547 SCA=84.6796 SCB=0.0387683 nrd=0.242857
+	 nrs=0.242857
M_ld_M100 ln_N213 ln_N206 ln_gnd! ln_gnd! n105  l=3e-08 w=4.68e-07 nf=1 m=1 ad=2.8548e-14 as=2.8548e-14
+	 ps=5.9e-07 pd=5.9e-07 SCC=0.0103476 SCA=125.256 SCB=0.0380727 nrd=0.130342
+	 nrs=0.130342
M_ld_M101 ln_N213 ln_N206 ln_gnd! ln_gnd! n105  l=3e-08 w=4.68e-07 nf=1 m=1 ad=2.8548e-14 as=4.7736e-14
+	 ps=1.14e-06 pd=5.9e-07 SCC=0.0103476 SCA=125.256 SCB=0.0380727 nrd=0.130342
+	 nrs=0.217949
M_ld_M102 ln_N213 ln_N206 ln_gnd! ln_gnd! n105  l=3e-08 w=4.68e-07 nf=1 m=1 ad=4.7736e-14 as=2.8548e-14
+	 ps=5.9e-07 pd=1.14e-06 SCC=0.0103476 SCA=125.256 SCB=0.0380727 nrd=0.217949
+	 nrs=0.130342
M_ld_M103 ln_N213 ln_N190 ln_N199 ln_gnd! n105  l=3e-08 w=4.2e-07 nf=1 m=1 ad=4.284e-14 as=4.284e-14
+	 ps=1.044e-06 pd=1.044e-06 SCC=0.00944547 SCA=84.6796 SCB=0.0387683 nrd=0.242857
+	 nrs=0.242857
M_ld_M104 ln_N210 ln_N205 ln_gnd! ln_gnd! n105  l=3e-08 w=4.68e-07 nf=1 m=1 ad=2.8548e-14 as=2.8548e-14
+	 ps=5.9e-07 pd=5.9e-07 SCC=0.0103477 SCA=126.929 SCB=0.038412 nrd=0.130342
+	 nrs=0.130342
M_ld_M105 ln_N210 ln_N205 ln_gnd! ln_gnd! n105  l=3e-08 w=4.68e-07 nf=1 m=1 ad=2.8548e-14 as=4.7736e-14
+	 ps=1.14e-06 pd=5.9e-07 SCC=0.0103481 SCA=127.226 SCB=0.0386468 nrd=0.130342
+	 nrs=0.217949
M_ld_M106 ln_N210 ln_N205 ln_gnd! ln_gnd! n105  l=3e-08 w=4.68e-07 nf=1 m=1 ad=4.7736e-14 as=2.8548e-14
+	 ps=5.9e-07 pd=1.14e-06 SCC=0.0103476 SCA=126.694 SCB=0.038272 nrd=0.217949
+	 nrs=0.130342
M_ld_M107 ln_N211 ln_N204 ln_gnd! ln_gnd! n105  l=3e-08 w=4.68e-07 nf=1 m=1 ad=2.8548e-14 as=2.8548e-14
+	 ps=5.9e-07 pd=5.9e-07 SCC=0.0103476 SCA=125.256 SCB=0.0380727 nrd=0.130342
+	 nrs=0.130342
M_ld_M108 ln_N211 ln_N204 ln_gnd! ln_gnd! n105  l=3e-08 w=4.68e-07 nf=1 m=1 ad=2.8548e-14 as=4.7736e-14
+	 ps=1.14e-06 pd=5.9e-07 SCC=0.0103476 SCA=125.256 SCB=0.0380727 nrd=0.130342
+	 nrs=0.217949
M_ld_M109 ln_N211 ln_N204 ln_gnd! ln_gnd! n105  l=3e-08 w=4.68e-07 nf=1 m=1 ad=4.7736e-14 as=2.8548e-14
+	 ps=5.9e-07 pd=1.14e-06 SCC=0.0103476 SCA=125.256 SCB=0.0380727 nrd=0.217949
+	 nrs=0.130342
M_ld_M110 ln_N210 ln_N187 ln_N198 ln_gnd! n105  l=3e-08 w=4.2e-07 nf=1 m=1 ad=4.284e-14 as=4.284e-14
+	 ps=1.044e-06 pd=1.044e-06 SCC=0.00944548 SCA=85.7747 SCB=0.038836 nrd=0.242857
+	 nrs=0.242857
M_ld_M111 ln_N211 ln_N184 ln_N197 ln_gnd! n105  l=3e-08 w=4.2e-07 nf=1 m=1 ad=4.284e-14 as=4.284e-14
+	 ps=1.044e-06 pd=1.044e-06 SCC=0.00944547 SCA=84.6796 SCB=0.0387683 nrd=0.242857
+	 nrs=0.242857
M_ld_M112 ln_N208 ln_N203 ln_gnd! ln_gnd! n105  l=3e-08 w=4.68e-07 nf=1 m=1 ad=2.8548e-14 as=2.8548e-14
+	 ps=5.9e-07 pd=5.9e-07 SCC=0.0106467 SCA=128.129 SCB=0.0427037 nrd=0.130342
+	 nrs=0.130342
M_ld_M113 ln_N208 ln_N203 ln_gnd! ln_gnd! n105  l=3e-08 w=4.68e-07 nf=1 m=1 ad=2.8548e-14 as=4.7736e-14
+	 ps=1.14e-06 pd=5.9e-07 SCC=0.0106467 SCA=128.129 SCB=0.0427037 nrd=0.130342
+	 nrs=0.217949
M_ld_M114 ln_N208 ln_N203 ln_gnd! ln_gnd! n105  l=3e-08 w=4.68e-07 nf=1 m=1 ad=4.7736e-14 as=2.8548e-14
+	 ps=5.9e-07 pd=1.14e-06 SCC=0.0106467 SCA=128.129 SCB=0.0427037 nrd=0.217949
+	 nrs=0.130342
M_ld_M115 ln_N208 ln_N181 ln_N196 ln_gnd! n105  l=3e-08 w=4.2e-07 nf=1 m=1 ad=4.284e-14 as=4.284e-14
+	 ps=1.044e-06 pd=1.044e-06 SCC=0.00977323 SCA=87.7173 SCB=0.0436468 nrd=0.242857
+	 nrs=0.242857
M_ld_M116 ln_N222 ln_N202 ln_gnd! ln_gnd! n105  l=3e-08 w=4.68e-07 nf=1 m=1 ad=2.8548e-14 as=2.8548e-14
+	 ps=5.9e-07 pd=5.9e-07 SCC=0.0103476 SCA=125.256 SCB=0.0380727 nrd=0.130342
+	 nrs=0.130342
M_ld_M117 ln_N222 ln_N202 ln_gnd! ln_gnd! n105  l=3e-08 w=4.68e-07 nf=1 m=1 ad=2.8548e-14 as=4.7736e-14
+	 ps=1.14e-06 pd=5.9e-07 SCC=0.0103476 SCA=125.256 SCB=0.0380727 nrd=0.130342
+	 nrs=0.217949
M_ld_M118 ln_N222 ln_N202 ln_gnd! ln_gnd! n105  l=3e-08 w=4.68e-07 nf=1 m=1 ad=4.7736e-14 as=2.8548e-14
+	 ps=5.9e-07 pd=1.14e-06 SCC=0.0103476 SCA=125.256 SCB=0.0380727 nrd=0.217949
+	 nrs=0.130342
M_ld_M119 ln_N224 ln_N201 ln_gnd! ln_gnd! n105  l=3e-08 w=4.68e-07 nf=1 m=1 ad=2.8548e-14 as=2.8548e-14
+	 ps=5.9e-07 pd=5.9e-07 SCC=0.0103476 SCA=125.256 SCB=0.0380727 nrd=0.130342
+	 nrs=0.130342
M_ld_M120 ln_N224 ln_N201 ln_gnd! ln_gnd! n105  l=3e-08 w=4.68e-07 nf=1 m=1 ad=2.8548e-14 as=4.7736e-14
+	 ps=1.14e-06 pd=5.9e-07 SCC=0.0103476 SCA=125.256 SCB=0.0380727 nrd=0.130342
+	 nrs=0.217949
M_ld_M121 ln_N224 ln_N201 ln_gnd! ln_gnd! n105  l=3e-08 w=4.68e-07 nf=1 m=1 ad=4.7736e-14 as=2.8548e-14
+	 ps=5.9e-07 pd=1.14e-06 SCC=0.0103476 SCA=125.256 SCB=0.0380727 nrd=0.217949
+	 nrs=0.130342
M_ld_M122 ln_N222 ln_N178 ln_N195 ln_gnd! n105  l=3e-08 w=4.2e-07 nf=1 m=1 ad=4.284e-14 as=4.284e-14
+	 ps=1.044e-06 pd=1.044e-06 SCC=0.00944547 SCA=84.6796 SCB=0.0387683 nrd=0.242857
+	 nrs=0.242857
M_ld_M123 ln_N224 ln_N175 ln_N194 ln_gnd! n105  l=3e-08 w=4.2e-07 nf=1 m=1 ad=4.284e-14 as=4.284e-14
+	 ps=1.044e-06 pd=1.044e-06 SCC=0.00944547 SCA=84.6796 SCB=0.0387683 nrd=0.242857
+	 nrs=0.242857
M_ld_M124 ln_N359 ln_N191 ln_gnd! ln_gnd! n105  l=3e-08 w=3.14e-07 nf=1 m=1 ad=1.9154e-14 as=3.2028e-14
+	 ps=8.32e-07 pd=4.36e-07 SCC=0.00712627 SCA=51.2824 SCB=0.0387169 nrd=0.194268
+	 nrs=0.324841
M_ld_M125 ln_N207 ln_N200 ln_gnd! ln_gnd! n105  l=3e-08 w=4.7e-07 nf=1 m=1 ad=2.867e-14 as=4.794e-14
+	 ps=1.144e-06 pd=5.92e-07 SCC=0.0103786 SCA=127.88 SCB=0.0380302 nrd=0.129787
+	 nrs=0.217021
M_ld_M126 ln_N207 ln_N200 ln_gnd! ln_gnd! n105  l=3e-08 w=4.7e-07 nf=1 m=1 ad=2.867e-14 as=4.794e-14
+	 ps=1.144e-06 pd=5.92e-07 SCC=0.0103786 SCA=127.88 SCB=0.0380302 nrd=0.129787
+	 nrs=0.217021
M_ld_M127 ln_N358 ln_N188 ln_gnd! ln_gnd! n105  l=3e-08 w=3.14e-07 nf=1 m=1 ad=1.9154e-14 as=3.2028e-14
+	 ps=8.32e-07 pd=4.36e-07 SCC=0.00712627 SCA=51.2824 SCB=0.0387169 nrd=0.194268
+	 nrs=0.324841
M_ld_M128 ln_N206 ln_N199 ln_gnd! ln_gnd! n105  l=3e-08 w=4.7e-07 nf=1 m=1 ad=2.867e-14 as=4.794e-14
+	 ps=1.144e-06 pd=5.92e-07 SCC=0.0103786 SCA=127.88 SCB=0.0380302 nrd=0.129787
+	 nrs=0.217021
M_ld_M129 ln_N206 ln_N199 ln_gnd! ln_gnd! n105  l=3e-08 w=4.7e-07 nf=1 m=1 ad=2.867e-14 as=4.794e-14
+	 ps=1.144e-06 pd=5.92e-07 SCC=0.0103786 SCA=127.88 SCB=0.0380302 nrd=0.129787
+	 nrs=0.217021
M_ld_M130 ln_N337 ln_N185 ln_gnd! ln_gnd! n105  l=3e-08 w=3.14e-07 nf=1 m=1 ad=1.9154e-14 as=3.2028e-14
+	 ps=8.32e-07 pd=4.36e-07 SCC=0.00712629 SCA=52.5856 SCB=0.0388544 nrd=0.194268
+	 nrs=0.324841
M_ld_M131 ln_N205 ln_N198 ln_gnd! ln_gnd! n105  l=3e-08 w=4.7e-07 nf=1 m=1 ad=2.867e-14 as=4.794e-14
+	 ps=1.144e-06 pd=5.92e-07 SCC=0.0103786 SCA=127.88 SCB=0.0380302 nrd=0.129787
+	 nrs=0.217021
M_ld_M132 ln_N205 ln_N198 ln_gnd! ln_gnd! n105  l=3e-08 w=4.7e-07 nf=1 m=1 ad=2.867e-14 as=4.794e-14
+	 ps=1.144e-06 pd=5.92e-07 SCC=0.0103786 SCA=127.88 SCB=0.0380302 nrd=0.129787
+	 nrs=0.217021
M_ld_M133 ln_N336 ln_N182 ln_gnd! ln_gnd! n105  l=3e-08 w=3.14e-07 nf=1 m=1 ad=1.9154e-14 as=3.2028e-14
+	 ps=8.32e-07 pd=4.36e-07 SCC=0.00712627 SCA=51.2824 SCB=0.0387169 nrd=0.194268
+	 nrs=0.324841
M_ld_M134 ln_N204 ln_N197 ln_gnd! ln_gnd! n105  l=3e-08 w=4.7e-07 nf=1 m=1 ad=2.867e-14 as=4.794e-14
+	 ps=1.144e-06 pd=5.92e-07 SCC=0.0103786 SCA=127.88 SCB=0.0380302 nrd=0.129787
+	 nrs=0.217021
M_ld_M135 ln_N204 ln_N197 ln_gnd! ln_gnd! n105  l=3e-08 w=4.7e-07 nf=1 m=1 ad=2.867e-14 as=4.794e-14
+	 ps=1.144e-06 pd=5.92e-07 SCC=0.0103786 SCA=127.88 SCB=0.0380302 nrd=0.129787
+	 nrs=0.217021
M_ld_M136 ln_N310 ln_N179 ln_gnd! ln_gnd! n105  l=3e-08 w=3.14e-07 nf=1 m=1 ad=1.9154e-14 as=3.2028e-14
+	 ps=8.32e-07 pd=4.36e-07 SCC=0.00753633 SCA=54.7533 SCB=0.0441996 nrd=0.194268
+	 nrs=0.324841
M_ld_M137 ln_N203 ln_N196 ln_gnd! ln_gnd! n105  l=3e-08 w=4.7e-07 nf=1 m=1 ad=2.867e-14 as=4.794e-14
+	 ps=1.144e-06 pd=5.92e-07 SCC=0.0106766 SCA=130.747 SCB=0.0426512 nrd=0.129787
+	 nrs=0.217021
M_ld_M138 ln_N203 ln_N196 ln_gnd! ln_gnd! n105  l=3e-08 w=4.7e-07 nf=1 m=1 ad=2.867e-14 as=4.794e-14
+	 ps=1.144e-06 pd=5.92e-07 SCC=0.0106766 SCA=130.747 SCB=0.0426512 nrd=0.129787
+	 nrs=0.217021
M_ld_M139 ln_N298 ln_N176 ln_gnd! ln_gnd! n105  l=3e-08 w=3.14e-07 nf=1 m=1 ad=1.9154e-14 as=3.2028e-14
+	 ps=8.32e-07 pd=4.36e-07 SCC=0.00712627 SCA=51.2824 SCB=0.0387169 nrd=0.194268
+	 nrs=0.324841
M_ld_M140 ln_N202 ln_N195 ln_gnd! ln_gnd! n105  l=3e-08 w=4.7e-07 nf=1 m=1 ad=2.867e-14 as=4.794e-14
+	 ps=1.144e-06 pd=5.92e-07 SCC=0.0103786 SCA=127.88 SCB=0.0380302 nrd=0.129787
+	 nrs=0.217021
M_ld_M141 ln_N202 ln_N195 ln_gnd! ln_gnd! n105  l=3e-08 w=4.7e-07 nf=1 m=1 ad=2.867e-14 as=4.794e-14
+	 ps=1.144e-06 pd=5.92e-07 SCC=0.0103786 SCA=127.88 SCB=0.0380302 nrd=0.129787
+	 nrs=0.217021
M_ld_M142 ln_N293 ln_N173 ln_gnd! ln_gnd! n105  l=3e-08 w=3.14e-07 nf=1 m=1 ad=1.9154e-14 as=3.2028e-14
+	 ps=8.32e-07 pd=4.36e-07 SCC=0.00712627 SCA=51.2824 SCB=0.0387169 nrd=0.194268
+	 nrs=0.324841
M_ld_M143 ln_N201 ln_N194 ln_gnd! ln_gnd! n105  l=3e-08 w=4.7e-07 nf=1 m=1 ad=2.867e-14 as=4.794e-14
+	 ps=1.144e-06 pd=5.92e-07 SCC=0.0103786 SCA=127.88 SCB=0.0380302 nrd=0.129787
+	 nrs=0.217021
M_ld_M144 ln_N201 ln_N194 ln_gnd! ln_gnd! n105  l=3e-08 w=4.7e-07 nf=1 m=1 ad=2.867e-14 as=4.794e-14
+	 ps=1.144e-06 pd=5.92e-07 SCC=0.0103786 SCA=127.88 SCB=0.0380302 nrd=0.129787
+	 nrs=0.217021
M_ld_M145 ln_N334 ln_N193 ln_N192 ln_gnd! n105  l=3e-08 w=4.2e-07 nf=1 m=1 ad=4.284e-14 as=4.284e-14
+	 ps=1.044e-06 pd=1.044e-06 SCC=0.00944547 SCA=84.6796 SCB=0.0387683 nrd=0.242857
+	 nrs=0.242857
M_ld_M146 ln_N191 ln_N192 ln_gnd! ln_gnd! n105  l=3e-08 w=4.2e-07 nf=1 m=1 ad=4.284e-14 as=4.284e-14
+	 ps=1.044e-06 pd=1.044e-06 SCC=0.00944547 SCA=84.6796 SCB=0.0387683 nrd=0.242857
+	 nrs=0.242857
M_ld_M147 ln_N359 ln_N191 ln_gnd! ln_gnd! n105  l=3e-08 w=3.14e-07 nf=1 m=1 ad=1.9154e-14 as=3.2028e-14
+	 ps=8.32e-07 pd=4.36e-07 SCC=0.00712627 SCA=51.2824 SCB=0.0387169 nrd=0.194268
+	 nrs=0.324841
M_ld_M148 ln_N335 ln_N190 ln_N189 ln_gnd! n105  l=3e-08 w=4.2e-07 nf=1 m=1 ad=4.284e-14 as=4.284e-14
+	 ps=1.044e-06 pd=1.044e-06 SCC=0.00944547 SCA=84.6796 SCB=0.0387683 nrd=0.242857
+	 nrs=0.242857
M_ld_M149 ln_N188 ln_N189 ln_gnd! ln_gnd! n105  l=3e-08 w=4.2e-07 nf=1 m=1 ad=4.284e-14 as=4.284e-14
+	 ps=1.044e-06 pd=1.044e-06 SCC=0.00944547 SCA=84.6796 SCB=0.0387683 nrd=0.242857
+	 nrs=0.242857